1
     RDKit          3D

 43 45  0  0  0  0  0  0  0  0999 V2000
   20.0115   73.1189   -0.6509 P   0  0  2  0  0  0  0  0  0  0  0  0
   20.2923   74.5908   -1.2610 O   0  0  0  0  0  0  0  0  0  0  0  0
   18.5908   72.8630   -0.2414 O   0  0  0  0  0  0  0  0  0  0  0  0
   21.1184   72.9658    0.5192 O   0  0  0  0  0  0  0  0  0  0  0  0
   22.2892   73.7611    0.4506 C   0  0  0  0  0  0  0  0  0  0  0  0
   24.6608   73.4422    0.2326 O   0  0  0  0  0  0  0  0  0  0  0  0
   24.0017   70.7931   -1.0078 O   0  0  0  0  0  0  0  0  0  0  0  0
   24.6915   70.1020    1.5384 O   0  0  0  0  0  0  0  0  0  0  0  0
   23.3442   71.4798    0.0559 C   0  0  1  0  0  0  0  0  0  0  0  0
   24.1681   71.3969    1.3239 C   0  0  2  0  0  0  0  0  0  0  0  0
   23.3845   72.9713   -0.2527 C   0  0  1  0  0  0  0  0  0  0  0  0
   25.2516   72.4297    1.0637 C   0  0  2  0  0  0  0  0  0  0  0  0
   23.9884   69.8385   -0.8332 H   0  0  0  0  0  0  0  0  0  0  0  0
   23.9636   69.4815    1.6993 H   0  0  0  0  0  0  0  0  0  0  0  0
   27.3073   71.3661    2.6826 O   0  0  0  0  0  0  0  0  0  0  0  0
   27.0005   74.8527    5.6810 O   0  0  0  0  0  0  0  0  0  0  0  0
   25.7291   73.0390    2.2728 N   0  0  0  0  0  0  0  0  0  0  0  0
   27.1530   73.1031    4.1742 N   0  0  0  0  0  0  0  0  0  0  0  0
   26.7652   72.4228    3.0127 C   0  0  0  0  0  0  0  0  0  0  0  0
   25.1716   74.2344    2.7135 C   0  0  0  0  0  0  0  0  0  0  0  0
   25.5518   74.8697    3.8239 C   0  0  0  0  0  0  0  0  0  0  0  0
   26.6286   74.2926    4.6544 C   0  0  0  0  0  0  0  0  0  0  0  0
   27.8729   72.6923    4.7059 H   0  0  0  0  0  0  0  0  0  0  0  0
   20.5662   72.1345   -1.8068 O   0  0  0  0  0  0  0  0  0  0  0  0
   20.2989   70.5642   -2.0822 P   0  0  2  0  0  0  0  0  0  0  0  0
   20.3058   69.9208   -0.5978 O   0  0  0  0  0  0  0  0  0  0  0  0
   21.2715   69.9324   -3.0355 O   0  0  0  0  0  0  0  0  0  0  0  0
   18.7567   70.4886   -2.5521 O   0  0  0  0  0  0  0  0  0  0  0  0
   17.3413   68.7473   -1.7898 O   0  0  0  0  0  0  0  0  0  0  0  0
   15.3032   69.7985   -5.2237 O   0  0  0  0  0  0  0  0  0  0  0  0
   14.2129   70.4927   -2.6591 O   0  0  0  0  0  0  0  0  0  0  0  0
   18.1979   69.7830   -5.2102 O   0  0  0  0  0  0  0  0  0  0  0  0
   16.0977   70.0307   -4.0574 C   0  0  1  0  0  0  0  0  0  0  0  0
   15.2956   69.5830   -2.8339 C   0  0  1  0  0  0  0  0  0  0  0  0
   17.3956   69.2333   -4.1706 C   0  0  2  0  0  0  0  0  0  0  0  0
   16.1748   69.5508   -1.5765 C   0  0  1  0  0  0  0  0  0  0  0  0
   18.1701   69.2246   -2.8514 C   0  0  1  0  0  0  0  0  0  0  0  0
   14.4778   70.3024   -5.1584 H   0  0  0  0  0  0  0  0  0  0  0  0
   13.6658   70.5039   -3.4602 H   0  0  0  0  0  0  0  0  0  0  0  0
   17.6965   69.7827   -6.0399 H   0  0  0  0  0  0  0  0  0  0  0  0
   14.6756   69.9822    0.2333 O   0  0  0  0  0  0  0  0  0  0  0  0
   15.4374   68.9574   -0.3781 C   0  0  0  0  0  0  0  0  0  0  0  0
   14.2006   69.6190    0.9975 H   0  0  0  0  0  0  0  0  0  0  0  0
 25 28  1  0
 25 24  1  0
 25 26  1  1
 25 27  2  0
  1  4  1  0
  1 24  1  0
  1  2  1  6
  1  3  2  0
  6 11  1  0
  6 12  1  0
 29 36  1  0
 29 37  1  0
  9  7  1  6
  7 13  1  0
 10  8  1  6
  8 14  1  0
 37 28  1  1
  4  5  1  0
 33 30  1  6
 30 38  1  0
 34 31  1  1
 31 39  1  0
 35 32  1  6
 32 40  1  0
 41 42  1  0
 41 43  1  0
 15 19  2  0
 16 22  2  0
 12 17  1  1
 17 19  1  0
 17 20  1  0
 18 19  1  0
 18 22  1  0
 18 23  1  0
  9 10  1  0
  9 11  1  0
 10 12  1  0
 11  5  1  1
 33 34  1  0
 33 35  1  0
 34 36  1  0
 35 37  1  0
 36 42  1  1
 20 21  2  0
 21 22  1  0
M  CHG  2   2  -1  26  -1
M  END
>  <COMPND>  (1) 
    8629 

>  <AUTHOR>  (1) 
    GENERATED BY OPEN BABEL 3.1.1

>  <MASTER>  (1) 
        0    0    0    0    0    0    0    0   58    0   58    0

>  <minimizedAffinity>  (1) 
-6.35277

>  <CNNscore>  (1) 
0.7116246819

>  <CNNaffinity>  (1) 
4.2959146500

>  <CNN_VS>  (1) 
3.0570788383

>  <CNNaffinity_variance>  (1) 
0.2295388430

$$$$
2
     RDKit          3D

 43 45  0  0  0  0  0  0  0  0999 V2000
   23.4522   71.9139   -2.1896 P   0  0  2  0  0  0  0  0  0  0  0  0
   24.6816   70.8694   -2.3124 O   0  0  0  0  0  0  0  0  0  0  0  0
   23.6024   73.1677   -3.0000 O   0  0  0  0  0  0  0  0  0  0  0  0
   23.2794   72.1246   -0.5947 O   0  0  0  0  0  0  0  0  0  0  0  0
   24.0467   71.3169    0.2810 C   0  0  0  0  0  0  0  0  0  0  0  0
   24.1717   71.0007    2.6597 O   0  0  0  0  0  0  0  0  0  0  0  0
   21.2451   71.6513    2.7116 O   0  0  0  0  0  0  0  0  0  0  0  0
   22.3891   73.9945    3.5100 O   0  0  0  0  0  0  0  0  0  0  0  0
   22.2746   72.1904    1.8841 C   0  0  1  0  0  0  0  0  0  0  0  0
   23.1473   73.1378    2.6805 C   0  0  2  0  0  0  0  0  0  0  0  0
   23.2469   71.0654    1.5520 C   0  0  1  0  0  0  0  0  0  0  0  0
   24.0160   72.1754    3.4726 C   0  0  2  0  0  0  0  0  0  0  0  0
   20.6116   72.3513    2.9366 H   0  0  0  0  0  0  0  0  0  0  0  0
   21.8536   74.5870    2.9596 H   0  0  0  0  0  0  0  0  0  0  0  0
   24.6262   73.7286    5.7515 O   0  0  0  0  0  0  0  0  0  0  0  0
   29.0278   74.2082    4.4721 O   0  0  0  0  0  0  0  0  0  0  0  0
   25.3135   72.7187    3.7603 N   0  0  0  0  0  0  0  0  0  0  0  0
   26.8174   73.9660    5.1127 N   0  0  0  0  0  0  0  0  0  0  0  0
   25.5140   73.4859    4.9314 C   0  0  0  0  0  0  0  0  0  0  0  0
   26.3704   72.4887    2.8863 C   0  0  0  0  0  0  0  0  0  0  0  0
   27.6071   72.9546    3.0729 C   0  0  0  0  0  0  0  0  0  0  0  0
   27.9009   73.7654    4.2722 C   0  0  0  0  0  0  0  0  0  0  0  0
   26.9806   74.5034    5.9216 H   0  0  0  0  0  0  0  0  0  0  0  0
   22.1685   71.0116   -2.5780 O   0  0  0  0  0  0  0  0  0  0  0  0
   20.7229   70.8618   -1.8703 P   0  0  2  0  0  0  0  0  0  0  0  0
   20.3873   72.3696   -1.3893 O   0  0  0  0  0  0  0  0  0  0  0  0
   20.6779   69.8374   -0.7736 O   0  0  0  0  0  0  0  0  0  0  0  0
   19.6992   70.5846   -3.0869 O   0  0  0  0  0  0  0  0  0  0  0  0
   17.8364   71.8984   -3.7356 O   0  0  0  0  0  0  0  0  0  0  0  0
   16.4007   68.1655   -4.7626 O   0  0  0  0  0  0  0  0  0  0  0  0
   17.1849   70.0006   -6.8279 O   0  0  0  0  0  0  0  0  0  0  0  0
   17.9746   68.4952   -2.3555 O   0  0  0  0  0  0  0  0  0  0  0  0
   17.3979   69.1765   -4.5926 C   0  0  1  0  0  0  0  0  0  0  0  0
   17.0182   70.3758   -5.4635 C   0  0  1  0  0  0  0  0  0  0  0  0
   17.4556   69.5781   -3.1200 C   0  0  2  0  0  0  0  0  0  0  0  0
   17.8882   71.5965   -5.1348 C   0  0  1  0  0  0  0  0  0  0  0  0
   18.3068   70.8316   -2.9093 C   0  0  1  0  0  0  0  0  0  0  0  0
   16.3594   67.9056   -5.6955 H   0  0  0  0  0  0  0  0  0  0  0  0
   16.6307   69.2284   -7.0222 H   0  0  0  0  0  0  0  0  0  0  0  0
   17.4269   67.7078   -2.4972 H   0  0  0  0  0  0  0  0  0  0  0  0
   18.0125   72.8490   -7.1658 O   0  0  0  0  0  0  0  0  0  0  0  0
   17.4235   72.8468   -5.8784 C   0  0  0  0  0  0  0  0  0  0  0  0
   17.7254   73.6390   -7.6507 H   0  0  0  0  0  0  0  0  0  0  0  0
 25 28  1  0
 25 24  1  0
 25 26  1  1
 25 27  2  0
  1  4  1  0
  1 24  1  0
  1  2  1  1
  1  3  2  0
  6 11  1  0
  6 12  1  0
 29 36  1  0
 29 37  1  0
  9  7  1  1
  7 13  1  0
 10  8  1  1
  8 14  1  0
 37 28  1  6
  4  5  1  0
 33 30  1  1
 30 38  1  0
 34 31  1  6
 31 39  1  0
 35 32  1  1
 32 40  1  0
 41 42  1  0
 41 43  1  0
 15 19  2  0
 16 22  2  0
 12 17  1  6
 17 19  1  0
 17 20  1  0
 18 19  1  0
 18 22  1  0
 18 23  1  0
  9 10  1  0
  9 11  1  0
 10 12  1  0
 11  5  1  6
 33 34  1  0
 33 35  1  0
 34 36  1  0
 35 37  1  0
 36 42  1  6
 20 21  2  0
 21 22  1  0
M  CHG  2   2  -1  26  -1
M  END
>  <COMPND>  (2) 
    8629 

>  <AUTHOR>  (2) 
    GENERATED BY OPEN BABEL 3.1.1

>  <MASTER>  (2) 
        0    0    0    0    0    0    0    0   58    0   58    0

>  <minimizedAffinity>  (2) 
-6.95734

>  <CNNscore>  (2) 
0.6940717101

>  <CNNaffinity>  (2) 
4.4284310341

>  <CNN_VS>  (2) 
3.0736486912

>  <CNNaffinity_variance>  (2) 
0.1016416177

$$$$
3
     RDKit          3D

 43 45  0  0  0  0  0  0  0  0999 V2000
   20.9561   72.0598   -5.0467 P   0  0  2  0  0  0  0  0  0  0  0  0
   20.3489   71.7846   -3.5726 O   0  0  0  0  0  0  0  0  0  0  0  0
   20.4935   73.3313   -5.6954 O   0  0  0  0  0  0  0  0  0  0  0  0
   20.6339   70.6986   -5.8598 O   0  0  0  0  0  0  0  0  0  0  0  0
   20.2472   70.7985   -7.2193 C   0  0  0  0  0  0  0  0  0  0  0  0
   18.4968   69.5041   -6.2023 O   0  0  0  0  0  0  0  0  0  0  0  0
   17.2366   69.4177   -8.9217 O   0  0  0  0  0  0  0  0  0  0  0  0
   15.7932   71.3564   -7.6589 O   0  0  0  0  0  0  0  0  0  0  0  0
   17.9663   70.4734   -8.2986 C   0  0  1  0  0  0  0  0  0  0  0  0
   17.1220   71.1375   -7.2310 C   0  0  2  0  0  0  0  0  0  0  0  0
   19.0856   69.8481   -7.4756 C   0  0  1  0  0  0  0  0  0  0  0  0
   17.2118   70.1375   -6.0909 C   0  0  2  0  0  0  0  0  0  0  0  0
   16.5163   69.7926   -9.4533 H   0  0  0  0  0  0  0  0  0  0  0  0
   15.7889   71.9996   -8.3849 H   0  0  0  0  0  0  0  0  0  0  0  0
   17.1378   68.7403   -3.6373 O   0  0  0  0  0  0  0  0  0  0  0  0
   16.8221   72.6469   -1.2124 O   0  0  0  0  0  0  0  0  0  0  0  0
   17.1109   70.7644   -4.8032 N   0  0  0  0  0  0  0  0  0  0  0  0
   16.9808   70.6866   -2.4318 N   0  0  0  0  0  0  0  0  0  0  0  0
   17.0804   69.9717   -3.6323 C   0  0  0  0  0  0  0  0  0  0  0  0
   17.0439   72.1503   -4.7106 C   0  0  0  0  0  0  0  0  0  0  0  0
   16.9479   72.8167   -3.5582 C   0  0  0  0  0  0  0  0  0  0  0  0
   16.9100   72.0632   -2.2882 C   0  0  0  0  0  0  0  0  0  0  0  0
   16.9575   70.1553   -1.6030 H   0  0  0  0  0  0  0  0  0  0  0  0
   22.5519   71.9697   -4.8052 O   0  0  0  0  0  0  0  0  0  0  0  0
   23.5286   72.8189   -3.8368 P   0  0  2  0  0  0  0  0  0  0  0  0
   22.9790   74.3328   -3.9908 O   0  0  0  0  0  0  0  0  0  0  0  0
   24.9897   72.6566   -4.1409 O   0  0  0  0  0  0  0  0  0  0  0  0
   23.1037   72.3811   -2.3425 O   0  0  0  0  0  0  0  0  0  0  0  0
   23.1067   73.6353   -0.3317 O   0  0  0  0  0  0  0  0  0  0  0  0
   24.2202   69.9586    1.1824 O   0  0  0  0  0  0  0  0  0  0  0  0
   21.5798   70.9638    1.6981 O   0  0  0  0  0  0  0  0  0  0  0  0
   25.2379   70.8320   -1.3829 O   0  0  0  0  0  0  0  0  0  0  0  0
   23.5234   70.8511    0.3087 C   0  0  1  0  0  0  0  0  0  0  0  0
   22.6332   71.7583    1.1604 C   0  0  1  0  0  0  0  0  0  0  0  0
   24.5409   71.6782   -0.4748 C   0  0  2  0  0  0  0  0  0  0  0  0
   22.0601   72.9125    0.3270 C   0  0  1  0  0  0  0  0  0  0  0  0
   23.8724   72.8290   -1.2291 C   0  0  1  0  0  0  0  0  0  0  0  0
   23.5798   69.4300    1.6825 H   0  0  0  0  0  0  0  0  0  0  0  0
   21.9552   70.2384    2.2217 H   0  0  0  0  0  0  0  0  0  0  0  0
   25.6568   70.1078   -0.8932 H   0  0  0  0  0  0  0  0  0  0  0  0
   21.7643   73.8102    2.5214 O   0  0  0  0  0  0  0  0  0  0  0  0
   21.2982   73.9169    1.1889 C   0  0  0  0  0  0  0  0  0  0  0  0
   21.2885   74.4440    3.0814 H   0  0  0  0  0  0  0  0  0  0  0  0
 25 28  1  0
 25 24  1  0
 25 26  1  1
 25 27  2  0
  1  4  1  0
  1 24  1  0
  1  2  1  1
  1  3  2  0
  6 11  1  0
  6 12  1  0
 29 36  1  0
 29 37  1  0
  9  7  1  1
  7 13  1  0
 10  8  1  6
  8 14  1  0
 37 28  1  6
  4  5  1  0
 33 30  1  1
 30 38  1  0
 34 31  1  6
 31 39  1  0
 35 32  1  6
 32 40  1  0
 41 42  1  0
 41 43  1  0
 15 19  2  0
 16 22  2  0
 12 17  1  1
 17 19  1  0
 17 20  1  0
 18 19  1  0
 18 22  1  0
 18 23  1  0
  9 10  1  0
  9 11  1  0
 10 12  1  0
 11  5  1  1
 33 34  1  0
 33 35  1  0
 34 36  1  0
 35 37  1  0
 36 42  1  1
 20 21  2  0
 21 22  1  0
M  CHG  2   2  -1  26  -1
M  END
>  <COMPND>  (3) 
    8629 

>  <AUTHOR>  (3) 
    GENERATED BY OPEN BABEL 3.1.1

>  <MASTER>  (3) 
        0    0    0    0    0    0    0    0   58    0   58    0

>  <minimizedAffinity>  (3) 
-6.87837

>  <CNNscore>  (3) 
0.6650475860

>  <CNNaffinity>  (3) 
4.4565663338

>  <CNN_VS>  (3) 
2.9638285637

>  <CNNaffinity_variance>  (3) 
0.2319084853

$$$$
4
     RDKit          3D

 43 45  0  0  0  0  0  0  0  0999 V2000
   21.4353   72.3270   -1.1448 P   0  0  2  0  0  0  0  0  0  0  0  0
   20.6969   71.0452   -1.8001 O   0  0  0  0  0  0  0  0  0  0  0  0
   20.5838   73.1433   -0.2174 O   0  0  0  0  0  0  0  0  0  0  0  0
   22.0442   73.1176   -2.4184 O   0  0  0  0  0  0  0  0  0  0  0  0
   21.3720   73.0161   -3.6617 C   0  0  0  0  0  0  0  0  0  0  0  0
   21.5880   71.0710   -5.0559 O   0  0  0  0  0  0  0  0  0  0  0  0
   23.7341   72.5801   -6.5077 O   0  0  0  0  0  0  0  0  0  0  0  0
   21.5861   72.8601   -8.1643 O   0  0  0  0  0  0  0  0  0  0  0  0
   22.5231   73.0652   -5.9302 C   0  0  1  0  0  0  0  0  0  0  0  0
   21.3375   72.6711   -6.7861 C   0  0  2  0  0  0  0  0  0  0  0  0
   22.2662   72.2799   -4.6500 C   0  0  1  0  0  0  0  0  0  0  0  0
   21.1571   71.2077   -6.4199 C   0  0  2  0  0  0  0  0  0  0  0  0
   23.9193   73.0670   -7.3266 H   0  0  0  0  0  0  0  0  0  0  0  0
   21.6936   73.8067   -8.3467 H   0  0  0  0  0  0  0  0  0  0  0  0
   19.9049   70.4248   -8.8276 O   0  0  0  0  0  0  0  0  0  0  0  0
   15.9059   69.5954   -6.6919 O   0  0  0  0  0  0  0  0  0  0  0  0
   19.7897   70.7822   -6.5219 N   0  0  0  0  0  0  0  0  0  0  0  0
   17.9147   70.0123   -7.7622 N   0  0  0  0  0  0  0  0  0  0  0  0
   19.2575   70.4108   -7.7786 C   0  0  0  0  0  0  0  0  0  0  0  0
   18.9916   70.7358   -5.3840 C   0  0  0  0  0  0  0  0  0  0  0  0
   17.7126   70.3547   -5.3855 C   0  0  0  0  0  0  0  0  0  0  0  0
   17.0799   69.9508   -6.6577 C   0  0  0  0  0  0  0  0  0  0  0  0
   17.5224   69.7495   -8.6264 H   0  0  0  0  0  0  0  0  0  0  0  0
   22.7474   71.6789   -0.4583 O   0  0  0  0  0  0  0  0  0  0  0  0
   22.8990   70.5105    0.6484 P   0  0  2  0  0  0  0  0  0  0  0  0
   24.3589   69.8884    0.3336 O   0  0  0  0  0  0  0  0  0  0  0  0
   21.7830   69.5063    0.6399 O   0  0  0  0  0  0  0  0  0  0  0  0
   23.0829   71.2943    2.0473 O   0  0  0  0  0  0  0  0  0  0  0  0
   22.4014   73.4051    2.8818 O   0  0  0  0  0  0  0  0  0  0  0  0
   26.3018   73.3877    4.2373 O   0  0  0  0  0  0  0  0  0  0  0  0
   24.1496   73.0387    6.1065 O   0  0  0  0  0  0  0  0  0  0  0  0
   25.6733   72.2910    1.6331 O   0  0  0  0  0  0  0  0  0  0  0  0
   25.0380   72.8110    3.8975 C   0  0  1  0  0  0  0  0  0  0  0  0
   23.9618   73.4710    4.7618 C   0  0  1  0  0  0  0  0  0  0  0  0
   24.7608   73.0541    2.4151 C   0  0  2  0  0  0  0  0  0  0  0  0
   22.5549   73.1011    4.2731 C   0  0  1  0  0  0  0  0  0  0  0  0
   23.3196   72.6997    2.0444 C   0  0  1  0  0  0  0  0  0  0  0  0
   26.4841   73.2364    5.1772 H   0  0  0  0  0  0  0  0  0  0  0  0
   25.0419   73.2779    6.4027 H   0  0  0  0  0  0  0  0  0  0  0  0
   26.5820   72.5247    1.8770 H   0  0  0  0  0  0  0  0  0  0  0  0
   22.0788   74.9349    5.7290 O   0  0  0  0  0  0  0  0  0  0  0  0
   21.4688   73.8717    5.0206 C   0  0  0  0  0  0  0  0  0  0  0  0
   21.3995   75.4344    6.2093 H   0  0  0  0  0  0  0  0  0  0  0  0
 25 28  1  0
 25 24  1  0
 25 26  1  6
 25 27  2  0
  1  4  1  0
  1 24  1  0
  1  2  1  6
  1  3  2  0
  6 11  1  0
  6 12  1  0
 29 36  1  0
 29 37  1  0
  9  7  1  6
  7 13  1  0
 10  8  1  6
  8 14  1  0
 37 28  1  1
  4  5  1  0
 33 30  1  1
 30 38  1  0
 34 31  1  1
 31 39  1  0
 35 32  1  6
 32 40  1  0
 41 42  1  0
 41 43  1  0
 15 19  2  0
 16 22  2  0
 12 17  1  1
 17 19  1  0
 17 20  1  0
 18 19  1  0
 18 22  1  0
 18 23  1  0
  9 10  1  0
  9 11  1  0
 10 12  1  0
 11  5  1  1
 33 34  1  0
 33 35  1  0
 34 36  1  0
 35 37  1  0
 36 42  1  1
 20 21  2  0
 21 22  1  0
M  CHG  2   2  -1  26  -1
M  END
>  <COMPND>  (4) 
    8629 

>  <AUTHOR>  (4) 
    GENERATED BY OPEN BABEL 3.1.1

>  <MASTER>  (4) 
        0    0    0    0    0    0    0    0   58    0   58    0

>  <minimizedAffinity>  (4) 
-6.84718

>  <CNNscore>  (4) 
0.6523286104

>  <CNNaffinity>  (4) 
4.3954873085

>  <CNN_VS>  (4) 
2.8673021793

>  <CNNaffinity_variance>  (4) 
0.0604879260

$$$$
5
     RDKit          3D

 43 45  0  0  0  0  0  0  0  0999 V2000
   23.6483   71.5865   -2.7032 P   0  0  2  0  0  0  0  0  0  0  0  0
   23.5063   73.0635   -2.0583 O   0  0  0  0  0  0  0  0  0  0  0  0
   25.0285   71.2292   -3.1708 O   0  0  0  0  0  0  0  0  0  0  0  0
   22.4905   71.5429   -3.8325 O   0  0  0  0  0  0  0  0  0  0  0  0
   22.4747   72.5550   -4.8240 C   0  0  0  0  0  0  0  0  0  0  0  0
   20.9742   70.9141   -5.7350 O   0  0  0  0  0  0  0  0  0  0  0  0
   20.9573   72.5848   -8.2248 O   0  0  0  0  0  0  0  0  0  0  0  0
   18.6066   73.2772   -7.0284 O   0  0  0  0  0  0  0  0  0  0  0  0
   21.0161   72.9989   -6.8609 C   0  0  1  0  0  0  0  0  0  0  0  0
   19.6627   72.8321   -6.2019 C   0  0  2  0  0  0  0  0  0  0  0  0
   21.8668   71.9894   -6.1003 C   0  0  1  0  0  0  0  0  0  0  0  0
   19.6171   71.3345   -5.9505 C   0  0  2  0  0  0  0  0  0  0  0  0
   20.4194   73.2145   -8.7308 H   0  0  0  0  0  0  0  0  0  0  0  0
   18.6795   74.2355   -7.1586 H   0  0  0  0  0  0  0  0  0  0  0  0
   17.7923   69.1818   -5.8319 O   0  0  0  0  0  0  0  0  0  0  0  0
   16.6709   70.1338   -1.4642 O   0  0  0  0  0  0  0  0  0  0  0  0
   18.8352   70.9967   -4.7947 N   0  0  0  0  0  0  0  0  0  0  0  0
   17.2355   69.6575   -3.6572 N   0  0  0  0  0  0  0  0  0  0  0  0
   17.9473   69.8967   -4.8396 C   0  0  0  0  0  0  0  0  0  0  0  0
   18.9532   71.7523   -3.6333 C   0  0  0  0  0  0  0  0  0  0  0  0
   18.2663   71.5119   -2.5145 C   0  0  0  0  0  0  0  0  0  0  0  0
   17.3171   70.3806   -2.4777 C   0  0  0  0  0  0  0  0  0  0  0  0
   16.6107   68.8964   -3.6651 H   0  0  0  0  0  0  0  0  0  0  0  0
   23.0611   70.6256   -1.5435 O   0  0  0  0  0  0  0  0  0  0  0  0
   22.3053   70.9741   -0.1578 P   0  0  2  0  0  0  0  0  0  0  0  0
   22.0957   69.5228    0.5257 O   0  0  0  0  0  0  0  0  0  0  0  0
   21.0416   71.7665   -0.3285 O   0  0  0  0  0  0  0  0  0  0  0  0
   23.4286   71.6940    0.7504 O   0  0  0  0  0  0  0  0  0  0  0  0
   25.1171   71.3026    2.3667 O   0  0  0  0  0  0  0  0  0  0  0  0
   22.6026   73.6937    4.6052 O   0  0  0  0  0  0  0  0  0  0  0  0
   25.1021   74.7520    3.6669 O   0  0  0  0  0  0  0  0  0  0  0  0
   21.4918   71.7400    2.7807 O   0  0  0  0  0  0  0  0  0  0  0  0
   23.2594   73.2480    3.4155 C   0  0  1  0  0  0  0  0  0  0  0  0
   24.7698   73.3669    3.6282 C   0  0  1  0  0  0  0  0  0  0  0  0
   22.8674   71.7971    3.1426 C   0  0  2  0  0  0  0  0  0  0  0  0
   25.5444   72.6627    2.5062 C   0  0  1  0  0  0  0  0  0  0  0  0
   23.7310   71.1759    2.0433 C   0  0  1  0  0  0  0  0  0  0  0  0
   22.8469   74.6145    4.7839 H   0  0  0  0  0  0  0  0  0  0  0  0
   24.6060   75.1850    4.3793 H   0  0  0  0  0  0  0  0  0  0  0  0
   20.9557   72.1359    3.4848 H   0  0  0  0  0  0  0  0  0  0  0  0
   27.4799   71.2849    2.7600 O   0  0  0  0  0  0  0  0  0  0  0  0
   27.0465   72.6325    2.7799 C   0  0  0  0  0  0  0  0  0  0  0  0
   28.4343   71.2502    2.9325 H   0  0  0  0  0  0  0  0  0  0  0  0
 25 28  1  0
 25 24  1  0
 25 26  1  1
 25 27  2  0
  1  4  1  0
  1 24  1  0
  1  2  1  1
  1  3  2  0
  6 11  1  0
  6 12  1  0
 29 36  1  0
 29 37  1  0
  9  7  1  6
  7 13  1  0
 10  8  1  6
  8 14  1  0
 37 28  1  6
  4  5  1  0
 33 30  1  1
 30 38  1  0
 34 31  1  6
 31 39  1  0
 35 32  1  6
 32 40  1  0
 41 42  1  0
 41 43  1  0
 15 19  2  0
 16 22  2  0
 12 17  1  1
 17 19  1  0
 17 20  1  0
 18 19  1  0
 18 22  1  0
 18 23  1  0
  9 10  1  0
  9 11  1  0
 10 12  1  0
 11  5  1  1
 33 34  1  0
 33 35  1  0
 34 36  1  0
 35 37  1  0
 36 42  1  1
 20 21  2  0
 21 22  1  0
M  CHG  2   2  -1  26  -1
M  END
>  <COMPND>  (5) 
    8629 

>  <AUTHOR>  (5) 
    GENERATED BY OPEN BABEL 3.1.1

>  <MASTER>  (5) 
        0    0    0    0    0    0    0    0   58    0   58    0

>  <minimizedAffinity>  (5) 
-7.40018

>  <CNNscore>  (5) 
0.6404772401

>  <CNNaffinity>  (5) 
4.2897481918

>  <CNN_VS>  (5) 
2.7474861145

>  <CNNaffinity_variance>  (5) 
0.2038612664

$$$$
6
     RDKit          3D

 43 45  0  0  0  0  0  0  0  0999 V2000
   23.8354   71.6321   -2.7827 P   0  0  2  0  0  0  0  0  0  0  0  0
   23.6714   73.1241   -2.1792 O   0  0  0  0  0  0  0  0  0  0  0  0
   25.1896   71.0156   -2.5893 O   0  0  0  0  0  0  0  0  0  0  0  0
   23.3420   71.7772   -4.3168 O   0  0  0  0  0  0  0  0  0  0  0  0
   22.1842   72.5490   -4.5845 C   0  0  0  0  0  0  0  0  0  0  0  0
   20.8601   71.1157   -5.9867 O   0  0  0  0  0  0  0  0  0  0  0  0
   20.9763   73.3134   -8.0232 O   0  0  0  0  0  0  0  0  0  0  0  0
   18.4949   73.6377   -6.9396 O   0  0  0  0  0  0  0  0  0  0  0  0
   20.8913   73.4040   -6.6020 C   0  0  1  0  0  0  0  0  0  0  0  0
   19.4954   73.0476   -6.1350 C   0  0  2  0  0  0  0  0  0  0  0  0
   21.7233   72.2736   -6.0092 C   0  0  1  0  0  0  0  0  0  0  0  0
   19.5072   71.5317   -6.2347 C   0  0  2  0  0  0  0  0  0  0  0  0
   20.4529   74.0256   -8.4243 H   0  0  0  0  0  0  0  0  0  0  0  0
   18.5281   74.6021   -6.8417 H   0  0  0  0  0  0  0  0  0  0  0  0
   16.7921   70.9014   -6.6916 O   0  0  0  0  0  0  0  0  0  0  0  0
   16.2937   69.1588   -2.4541 O   0  0  0  0  0  0  0  0  0  0  0  0
   18.6445   70.9125   -5.2684 N   0  0  0  0  0  0  0  0  0  0  0  0
   16.5462   70.0341   -4.5814 N   0  0  0  0  0  0  0  0  0  0  0  0
   17.2964   70.6393   -5.5977 C   0  0  0  0  0  0  0  0  0  0  0  0
   19.1370   70.5826   -4.0104 C   0  0  0  0  0  0  0  0  0  0  0  0
   18.4082   70.0069   -3.0519 C   0  0  0  0  0  0  0  0  0  0  0  0
   16.9901   69.6880   -3.3149 C   0  0  0  0  0  0  0  0  0  0  0  0
   15.6042   69.8347   -4.7880 H   0  0  0  0  0  0  0  0  0  0  0  0
   22.6221   70.8227   -2.0858 O   0  0  0  0  0  0  0  0  0  0  0  0
   21.5808   71.2595   -0.9291 P   0  0  2  0  0  0  0  0  0  0  0  0
   20.7810   69.8892   -0.6131 O   0  0  0  0  0  0  0  0  0  0  0  0
   20.7013   72.4188   -1.2987 O   0  0  0  0  0  0  0  0  0  0  0  0
   22.4989   71.5057    0.3753 O   0  0  0  0  0  0  0  0  0  0  0  0
   21.8385   73.3589    1.6966 O   0  0  0  0  0  0  0  0  0  0  0  0
   25.5630   72.6698    3.3412 O   0  0  0  0  0  0  0  0  0  0  0  0
   23.2057   71.9982    4.8380 O   0  0  0  0  0  0  0  0  0  0  0  0
   25.1660   72.3710    0.4894 O   0  0  0  0  0  0  0  0  0  0  0  0
   24.3159   72.3075    2.7421 C   0  0  1  0  0  0  0  0  0  0  0  0
   23.1871   72.7914    3.6544 C   0  0  1  0  0  0  0  0  0  0  0  0
   24.2138   72.9633    1.3663 C   0  0  2  0  0  0  0  0  0  0  0  0
   21.8246   72.6789    2.9572 C   0  0  1  0  0  0  0  0  0  0  0  0
   22.8053   72.8365    0.7832 C   0  0  1  0  0  0  0  0  0  0  0  0
   25.6343   72.2562    4.2149 H   0  0  0  0  0  0  0  0  0  0  0  0
   24.0716   72.0776    5.2683 H   0  0  0  0  0  0  0  0  0  0  0  0
   26.0536   72.4581    0.8696 H   0  0  0  0  0  0  0  0  0  0  0  0
   21.2801   73.9417    4.9112 O   0  0  0  0  0  0  0  0  0  0  0  0
   20.7042   73.3014    3.7875 C   0  0  0  0  0  0  0  0  0  0  0  0
   20.5787   74.3428    5.4487 H   0  0  0  0  0  0  0  0  0  0  0  0
 25 28  1  0
 25 24  1  0
 25 26  1  1
 25 27  2  0
  1  4  1  0
  1 24  1  0
  1  2  1  1
  1  3  2  0
  6 11  1  0
  6 12  1  0
 29 36  1  0
 29 37  1  0
  9  7  1  6
  7 13  1  0
 10  8  1  6
  8 14  1  0
 37 28  1  1
  4  5  1  0
 33 30  1  1
 30 38  1  0
 34 31  1  1
 31 39  1  0
 35 32  1  6
 32 40  1  0
 41 42  1  0
 41 43  1  0
 15 19  2  0
 16 22  2  0
 12 17  1  1
 17 19  1  0
 17 20  1  0
 18 19  1  0
 18 22  1  0
 18 23  1  0
  9 10  1  0
  9 11  1  0
 10 12  1  0
 11  5  1  1
 33 34  1  0
 33 35  1  0
 34 36  1  0
 35 37  1  0
 36 42  1  1
 20 21  2  0
 21 22  1  0
M  CHG  2   2  -1  26  -1
M  END
>  <COMPND>  (6) 
    8629 

>  <AUTHOR>  (6) 
    GENERATED BY OPEN BABEL 3.1.1

>  <MASTER>  (6) 
        0    0    0    0    0    0    0    0   58    0   58    0

>  <minimizedAffinity>  (6) 
-6.66985

>  <CNNscore>  (6) 
0.6280625463

>  <CNNaffinity>  (6) 
4.2743134499

>  <CNN_VS>  (6) 
2.6845362186

>  <CNNaffinity_variance>  (6) 
0.2014093697

$$$$
7
     RDKit          3D

 43 45  0  0  0  0  0  0  0  0999 V2000
   21.6197   70.5058   -0.5468 P   0  0  2  0  0  0  0  0  0  0  0  0
   21.5299   69.3952    0.6263 O   0  0  0  0  0  0  0  0  0  0  0  0
   21.1612   71.8797   -0.1551 O   0  0  0  0  0  0  0  0  0  0  0  0
   20.8292   69.8276   -1.7850 O   0  0  0  0  0  0  0  0  0  0  0  0
   20.4120   70.6563   -2.8560 C   0  0  0  0  0  0  0  0  0  0  0  0
   18.4784   71.7651   -3.7535 O   0  0  0  0  0  0  0  0  0  0  0  0
   17.0362   70.8370   -1.2939 O   0  0  0  0  0  0  0  0  0  0  0  0
   16.2110   69.0465   -3.1779 O   0  0  0  0  0  0  0  0  0  0  0  0
   18.0471   70.1738   -2.0512 C   0  0  1  0  0  0  0  0  0  0  0  0
   17.4736   69.6562   -3.3539 C   0  0  2  0  0  0  0  0  0  0  0  0
   19.0369   71.2261   -2.5353 C   0  0  1  0  0  0  0  0  0  0  0  0
   17.4000   70.9220   -4.1908 C   0  0  2  0  0  0  0  0  0  0  0  0
   16.3924   70.1851   -0.9737 H   0  0  0  0  0  0  0  0  0  0  0  0
   16.3106   68.2460   -2.6394 H   0  0  0  0  0  0  0  0  0  0  0  0
   16.3624   72.5633   -6.2420 O   0  0  0  0  0  0  0  0  0  0  0  0
   18.0450   69.8188   -9.5402 O   0  0  0  0  0  0  0  0  0  0  0  0
   17.5524   70.6603   -5.5942 N   0  0  0  0  0  0  0  0  0  0  0  0
   17.2012   71.1955   -7.8826 N   0  0  0  0  0  0  0  0  0  0  0  0
   16.9919   71.5470   -6.5429 C   0  0  0  0  0  0  0  0  0  0  0  0
   18.2516   69.5351   -6.0174 C   0  0  0  0  0  0  0  0  0  0  0  0
   18.4412   69.2134   -7.2987 C   0  0  0  0  0  0  0  0  0  0  0  0
   17.8878   70.0874   -8.3532 C   0  0  0  0  0  0  0  0  0  0  0  0
   16.8194   71.7984   -8.5612 H   0  0  0  0  0  0  0  0  0  0  0  0
   23.1655   70.4194   -1.0115 O   0  0  0  0  0  0  0  0  0  0  0  0
   24.4670   71.2476   -0.5287 P   0  0  2  0  0  0  0  0  0  0  0  0
   24.5093   72.5011   -1.5507 O   0  0  0  0  0  0  0  0  0  0  0  0
   25.7311   70.4386   -0.4883 O   0  0  0  0  0  0  0  0  0  0  0  0
   24.0392   71.8911    0.8883 O   0  0  0  0  0  0  0  0  0  0  0  0
   25.6294   71.2876    2.5386 O   0  0  0  0  0  0  0  0  0  0  0  0
   22.8525   73.1619    4.9524 O   0  0  0  0  0  0  0  0  0  0  0  0
   25.3559   74.4570    4.4012 O   0  0  0  0  0  0  0  0  0  0  0  0
   21.9672   71.5145    2.7430 O   0  0  0  0  0  0  0  0  0  0  0  0
   23.6108   72.9532    3.7579 C   0  0  1  0  0  0  0  0  0  0  0  0
   25.0953   73.0884    4.1024 C   0  0  1  0  0  0  0  0  0  0  0  0
   23.3101   71.5581    3.2132 C   0  0  2  0  0  0  0  0  0  0  0  0
   25.9790   72.6176    2.9394 C   0  0  1  0  0  0  0  0  0  0  0  0
   24.2768   71.1684    2.0935 C   0  0  1  0  0  0  0  0  0  0  0  0
   23.0385   74.0462    5.3031 H   0  0  0  0  0  0  0  0  0  0  0  0
   24.7912   74.7418    5.1368 H   0  0  0  0  0  0  0  0  0  0  0  0
   21.3650   71.7628    3.4611 H   0  0  0  0  0  0  0  0  0  0  0  0
   27.9496   73.9226    3.2894 O   0  0  0  0  0  0  0  0  0  0  0  0
   27.4583   72.5952    3.3178 C   0  0  0  0  0  0  0  0  0  0  0  0
   28.8901   73.9239    3.5285 H   0  0  0  0  0  0  0  0  0  0  0  0
 25 28  1  0
 25 24  1  0
 25 26  1  6
 25 27  2  0
  1  4  1  0
  1 24  1  0
  1  2  1  1
  1  3  2  0
  6 11  1  0
  6 12  1  0
 29 36  1  0
 29 37  1  0
  9  7  1  1
  7 13  1  0
 10  8  1  1
  8 14  1  0
 37 28  1  6
  4  5  1  0
 33 30  1  1
 30 38  1  0
 34 31  1  6
 31 39  1  0
 35 32  1  6
 32 40  1  0
 41 42  1  0
 41 43  1  0
 15 19  2  0
 16 22  2  0
 12 17  1  6
 17 19  1  0
 17 20  1  0
 18 19  1  0
 18 22  1  0
 18 23  1  0
  9 10  1  0
  9 11  1  0
 10 12  1  0
 11  5  1  6
 33 34  1  0
 33 35  1  0
 34 36  1  0
 35 37  1  0
 36 42  1  1
 20 21  2  0
 21 22  1  0
M  CHG  2   2  -1  26  -1
M  END
>  <COMPND>  (7) 
    8629 

>  <AUTHOR>  (7) 
    GENERATED BY OPEN BABEL 3.1.1

>  <MASTER>  (7) 
        0    0    0    0    0    0    0    0   58    0   58    0

>  <minimizedAffinity>  (7) 
-7.63475

>  <CNNscore>  (7) 
0.5887489915

>  <CNNaffinity>  (7) 
4.4623575211

>  <CNN_VS>  (7) 
2.6272084713

>  <CNNaffinity_variance>  (7) 
0.0285057779

$$$$
8
     RDKit          3D

 43 45  0  0  0  0  0  0  0  0999 V2000
   20.5179   71.9060   -2.9949 P   0  0  2  0  0  0  0  0  0  0  0  0
   21.8244   71.8317   -3.9462 O   0  0  0  0  0  0  0  0  0  0  0  0
   19.6390   73.1015   -3.2175 O   0  0  0  0  0  0  0  0  0  0  0  0
   21.1158   71.7419   -1.5004 O   0  0  0  0  0  0  0  0  0  0  0  0
   21.8595   72.8142   -0.9483 C   0  0  0  0  0  0  0  0  0  0  0  0
   24.0940   73.1862   -0.1468 O   0  0  0  0  0  0  0  0  0  0  0  0
   24.9241   70.9743   -1.9933 O   0  0  0  0  0  0  0  0  0  0  0  0
   24.8447   69.7269    0.4305 O   0  0  0  0  0  0  0  0  0  0  0  0
   23.7275   71.1097   -1.2283 C   0  0  1  0  0  0  0  0  0  0  0  0
   24.0079   70.8491    0.2370 C   0  0  2  0  0  0  0  0  0  0  0  0
   23.3396   72.5830   -1.2207 C   0  0  1  0  0  0  0  0  0  0  0  0
   24.6647   72.1494    0.6682 C   0  0  2  0  0  0  0  0  0  0  0  0
   25.1914   70.0415   -2.0127 H   0  0  0  0  0  0  0  0  0  0  0  0
   24.3822   68.9249    0.1414 H   0  0  0  0  0  0  0  0  0  0  0  0
   26.5117   73.4459    2.3670 O   0  0  0  0  0  0  0  0  0  0  0  0
   23.6196   73.2674    5.9510 O   0  0  0  0  0  0  0  0  0  0  0  0
   24.4203   72.4546    2.0497 N   0  0  0  0  0  0  0  0  0  0  0  0
   25.0701   73.3561    4.1501 N   0  0  0  0  0  0  0  0  0  0  0  0
   25.4145   73.1072    2.8154 C   0  0  0  0  0  0  0  0  0  0  0  0
   23.2059   72.1079    2.6317 C   0  0  0  0  0  0  0  0  0  0  0  0
   22.8935   72.3511    3.9062 C   0  0  0  0  0  0  0  0  0  0  0  0
   23.8769   73.0297    4.7749 C   0  0  0  0  0  0  0  0  0  0  0  0
   25.7473   73.8095    4.7028 H   0  0  0  0  0  0  0  0  0  0  0  0
   19.7968   70.4830   -3.2559 O   0  0  0  0  0  0  0  0  0  0  0  0
   18.2826   69.9926   -2.9735 P   0  0  2  0  0  0  0  0  0  0  0  0
   17.5888   71.2945   -2.3093 O   0  0  0  0  0  0  0  0  0  0  0  0
   18.1844   68.7464   -2.1419 O   0  0  0  0  0  0  0  0  0  0  0  0
   17.6117   69.8749   -4.4367 O   0  0  0  0  0  0  0  0  0  0  0  0
   18.5531   71.2529   -6.1194 O   0  0  0  0  0  0  0  0  0  0  0  0
   15.0152   70.2446   -7.9950 O   0  0  0  0  0  0  0  0  0  0  0  0
   17.4834   69.0989   -8.9132 O   0  0  0  0  0  0  0  0  0  0  0  0
   15.0441   70.7575   -5.1462 O   0  0  0  0  0  0  0  0  0  0  0  0
   16.1529   70.0278   -7.1560 C   0  0  1  0  0  0  0  0  0  0  0  0
   17.4142   70.1952   -8.0057 C   0  0  1  0  0  0  0  0  0  0  0  0
   16.1336   71.0446   -6.0162 C   0  0  2  0  0  0  0  0  0  0  0  0
   18.6717   70.2420   -7.1273 C   0  0  1  0  0  0  0  0  0  0  0  0
   17.4495   71.0436   -5.2361 C   0  0  1  0  0  0  0  0  0  0  0  0
   15.0212   69.6019   -8.7205 H   0  0  0  0  0  0  0  0  0  0  0  0
   16.6833   69.0804   -9.4615 H   0  0  0  0  0  0  0  0  0  0  0  0
   14.2169   70.7614   -5.6519 H   0  0  0  0  0  0  0  0  0  0  0  0
   20.8961   69.5687   -7.6820 O   0  0  0  0  0  0  0  0  0  0  0  0
   19.9243   70.5658   -7.9385 C   0  0  0  0  0  0  0  0  0  0  0  0
   21.6989   69.7616   -8.1920 H   0  0  0  0  0  0  0  0  0  0  0  0
 25 28  1  0
 25 24  1  0
 25 26  1  1
 25 27  2  0
  1  4  1  0
  1 24  1  0
  1  2  1  6
  1  3  2  0
  6 11  1  0
  6 12  1  0
 29 36  1  0
 29 37  1  0
  9  7  1  6
  7 13  1  0
 10  8  1  6
  8 14  1  0
 37 28  1  6
  4  5  1  0
 33 30  1  6
 30 38  1  0
 34 31  1  6
 31 39  1  0
 35 32  1  1
 32 40  1  0
 41 42  1  0
 41 43  1  0
 15 19  2  0
 16 22  2  0
 12 17  1  1
 17 19  1  0
 17 20  1  0
 18 19  1  0
 18 22  1  0
 18 23  1  0
  9 10  1  0
  9 11  1  0
 10 12  1  0
 11  5  1  1
 33 34  1  0
 33 35  1  0
 34 36  1  0
 35 37  1  0
 36 42  1  6
 20 21  2  0
 21 22  1  0
M  CHG  2   2  -1  26  -1
M  END
>  <COMPND>  (8) 
    8629 

>  <AUTHOR>  (8) 
    GENERATED BY OPEN BABEL 3.1.1

>  <MASTER>  (8) 
        0    0    0    0    0    0    0    0   58    0   58    0

>  <minimizedAffinity>  (8) 
-7.44721

>  <CNNscore>  (8) 
0.5862593651

>  <CNNaffinity>  (8) 
4.4054393768

>  <CNN_VS>  (8) 
2.5827300549

>  <CNNaffinity_variance>  (8) 
0.2154935896

$$$$
9
     RDKit          3D

 43 45  0  0  0  0  0  0  0  0999 V2000
   23.8399   71.8047   -2.7579 P   0  0  2  0  0  0  0  0  0  0  0  0
   25.1053   72.2545   -3.6601 O   0  0  0  0  0  0  0  0  0  0  0  0
   23.3353   70.4164   -3.0213 O   0  0  0  0  0  0  0  0  0  0  0  0
   22.7661   72.9955   -2.9740 O   0  0  0  0  0  0  0  0  0  0  0  0
   21.5430   72.6935   -3.6225 C   0  0  0  0  0  0  0  0  0  0  0  0
   21.2969   71.6442   -5.7701 O   0  0  0  0  0  0  0  0  0  0  0  0
   21.4656   74.4044   -6.9294 O   0  0  0  0  0  0  0  0  0  0  0  0
   18.7861   73.9004   -6.9820 O   0  0  0  0  0  0  0  0  0  0  0  0
   20.8586   73.9724   -5.7128 C   0  0  1  0  0  0  0  0  0  0  0  0
   19.5630   73.2432   -6.0015 C   0  0  2  0  0  0  0  0  0  0  0  0
   21.7231   72.8641   -5.1247 C   0  0  1  0  0  0  0  0  0  0  0  0
   20.0622   71.8852   -6.4648 C   0  0  2  0  0  0  0  0  0  0  0  0
   20.9315   75.1124   -7.3235 H   0  0  0  0  0  0  0  0  0  0  0  0
   18.4923   74.7591   -6.6399 H   0  0  0  0  0  0  0  0  0  0  0  0
   18.9813   70.1045   -8.3723 O   0  0  0  0  0  0  0  0  0  0  0  0
   16.5326   67.8709   -5.1698 O   0  0  0  0  0  0  0  0  0  0  0  0
   19.1401   70.8286   -6.1570 N   0  0  0  0  0  0  0  0  0  0  0  0
   17.7631   68.9937   -6.7761 N   0  0  0  0  0  0  0  0  0  0  0  0
   18.6563   69.9907   -7.1886 C   0  0  0  0  0  0  0  0  0  0  0  0
   18.7251   70.6314   -4.8445 C   0  0  0  0  0  0  0  0  0  0  0  0
   17.8717   69.6769   -4.4678 C   0  0  0  0  0  0  0  0  0  0  0  0
   17.3194   68.7585   -5.4844 C   0  0  0  0  0  0  0  0  0  0  0  0
   17.4126   68.3982   -7.4778 H   0  0  0  0  0  0  0  0  0  0  0  0
   24.3620   72.0557   -1.2488 O   0  0  0  0  0  0  0  0  0  0  0  0
   24.7163   71.0174   -0.0616 P   0  0  2  0  0  0  0  0  0  0  0  0
   26.0352   70.2597   -0.6127 O   0  0  0  0  0  0  0  0  0  0  0  0
   23.5869   70.1017    0.3124 O   0  0  0  0  0  0  0  0  0  0  0  0
   25.2533   71.9447    1.1454 O   0  0  0  0  0  0  0  0  0  0  0  0
   23.2313   73.1176    1.5358 O   0  0  0  0  0  0  0  0  0  0  0  0
   25.2629   74.1394    4.9825 O   0  0  0  0  0  0  0  0  0  0  0  0
   23.0788   72.2798    5.1224 O   0  0  0  0  0  0  0  0  0  0  0  0
   26.6839   73.9653    2.4665 O   0  0  0  0  0  0  0  0  0  0  0  0
   24.8749   73.2844    3.9036 C   0  0  1  0  0  0  0  0  0  0  0  0
   23.3607   73.0779    3.9762 C   0  0  1  0  0  0  0  0  0  0  0  0
   25.2652   73.9414    2.5809 C   0  0  2  0  0  0  0  0  0  0  0  0
   22.8333   72.3952    2.7069 C   0  0  1  0  0  0  0  0  0  0  0  0
   24.6490   73.2130    1.3851 C   0  0  1  0  0  0  0  0  0  0  0  0
   25.0184   73.7279    5.8253 H   0  0  0  0  0  0  0  0  0  0  0  0
   23.4174   72.7219    5.9169 H   0  0  0  0  0  0  0  0  0  0  0  0
   27.0619   74.4293    3.2292 H   0  0  0  0  0  0  0  0  0  0  0  0
   20.8104   73.0342    3.8063 O   0  0  0  0  0  0  0  0  0  0  0  0
   21.3081   72.3215    2.6888 C   0  0  0  0  0  0  0  0  0  0  0  0
   19.8408   72.9962    3.8076 H   0  0  0  0  0  0  0  0  0  0  0  0
 25 28  1  0
 25 24  1  0
 25 26  1  6
 25 27  2  0
  1  4  1  0
  1 24  1  0
  1  2  1  6
  1  3  2  0
  6 11  1  0
  6 12  1  0
 29 36  1  0
 29 37  1  0
  9  7  1  6
  7 13  1  0
 10  8  1  6
  8 14  1  0
 37 28  1  1
  4  5  1  0
 33 30  1  1
 30 38  1  0
 34 31  1  1
 31 39  1  0
 35 32  1  6
 32 40  1  0
 41 42  1  0
 41 43  1  0
 15 19  2  0
 16 22  2  0
 12 17  1  1
 17 19  1  0
 17 20  1  0
 18 19  1  0
 18 22  1  0
 18 23  1  0
  9 10  1  0
  9 11  1  0
 10 12  1  0
 11  5  1  1
 33 34  1  0
 33 35  1  0
 34 36  1  0
 35 37  1  0
 36 42  1  1
 20 21  2  0
 21 22  1  0
M  CHG  2   2  -1  26  -1
M  END
>  <COMPND>  (9) 
    8629 

>  <AUTHOR>  (9) 
    GENERATED BY OPEN BABEL 3.1.1

>  <MASTER>  (9) 
        0    0    0    0    0    0    0    0   58    0   58    0

>  <minimizedAffinity>  (9) 
-7.43976

>  <CNNscore>  (9) 
0.5658194423

>  <CNNaffinity>  (9) 
4.2654666901

>  <CNN_VS>  (9) 
2.4134840965

>  <CNNaffinity_variance>  (9) 
0.0525884256

$$$$
10
     RDKit          3D

 43 45  0  0  0  0  0  0  0  0999 V2000
   22.4668   71.9387   -3.6767 P   0  0  2  0  0  0  0  0  0  0  0  0
   21.9551   70.4045   -3.6344 O   0  0  0  0  0  0  0  0  0  0  0  0
   23.7800   72.1499   -4.3712 O   0  0  0  0  0  0  0  0  0  0  0  0
   22.4057   72.4113   -2.1305 O   0  0  0  0  0  0  0  0  0  0  0  0
   23.5380   72.1854   -1.3092 C   0  0  0  0  0  0  0  0  0  0  0  0
   24.2546   70.9700    0.6358 O   0  0  0  0  0  0  0  0  0  0  0  0
   21.5544   69.6672    0.5862 O   0  0  0  0  0  0  0  0  0  0  0  0
   21.2696   71.5510    2.5372 O   0  0  0  0  0  0  0  0  0  0  0  0
   21.9156   71.0075    0.2572 C   0  0  1  0  0  0  0  0  0  0  0  0
   22.2146   71.7955    1.5155 C   0  0  2  0  0  0  0  0  0  0  0  0
   23.2765   70.9723   -0.4270 C   0  0  1  0  0  0  0  0  0  0  0  0
   23.6052   71.3000    1.8745 C   0  0  2  0  0  0  0  0  0  0  0  0
   20.6882   69.6641    1.0240 H   0  0  0  0  0  0  0  0  0  0  0  0
   20.4014   71.8841    2.2613 H   0  0  0  0  0  0  0  0  0  0  0  0
   23.3774   71.8907    4.6271 O   0  0  0  0  0  0  0  0  0  0  0  0
   26.6357   75.1414    4.3863 O   0  0  0  0  0  0  0  0  0  0  0  0
   24.3820   72.2958    2.5574 N   0  0  0  0  0  0  0  0  0  0  0  0
   25.0001   73.5087    4.5050 N   0  0  0  0  0  0  0  0  0  0  0  0
   24.1897   72.5149    3.9414 C   0  0  0  0  0  0  0  0  0  0  0  0
   25.3223   73.0425    1.8559 C   0  0  0  0  0  0  0  0  0  0  0  0
   26.0864   73.9874    2.4079 C   0  0  0  0  0  0  0  0  0  0  0  0
   25.9479   74.2785    3.8494 C   0  0  0  0  0  0  0  0  0  0  0  0
   24.8834   73.6790    5.4679 H   0  0  0  0  0  0  0  0  0  0  0  0
   21.2191   72.7197   -4.3449 O   0  0  0  0  0  0  0  0  0  0  0  0
   19.6323   72.6351   -4.0489 P   0  0  2  0  0  0  0  0  0  0  0  0
   19.1821   74.1881   -3.9923 O   0  0  0  0  0  0  0  0  0  0  0  0
   19.2761   71.8421   -2.8248 O   0  0  0  0  0  0  0  0  0  0  0  0
   18.9903   72.0743   -5.4194 O   0  0  0  0  0  0  0  0  0  0  0  0
   18.2080   69.8571   -5.1217 O   0  0  0  0  0  0  0  0  0  0  0  0
   17.7123   70.1887   -9.2077 O   0  0  0  0  0  0  0  0  0  0  0  0
   15.4075   70.1991   -7.4942 O   0  0  0  0  0  0  0  0  0  0  0  0
   20.0245   71.3752   -7.9327 O   0  0  0  0  0  0  0  0  0  0  0  0
   17.7280   70.6532   -7.8551 C   0  0  1  0  0  0  0  0  0  0  0  0
   16.7130   69.8343   -7.0551 C   0  0  1  0  0  0  0  0  0  0  0  0
   19.1330   70.4757   -7.2826 C   0  0  2  0  0  0  0  0  0  0  0  0
   16.8605   70.0882   -5.5488 C   0  0  1  0  0  0  0  0  0  0  0  0
   19.1595   70.7033   -5.7702 C   0  0  1  0  0  0  0  0  0  0  0  0
   16.8231   70.2991   -9.5773 H   0  0  0  0  0  0  0  0  0  0  0  0
   15.3277   70.0344   -8.4470 H   0  0  0  0  0  0  0  0  0  0  0  0
   19.9987   71.2208   -8.8894 H   0  0  0  0  0  0  0  0  0  0  0  0
   15.3636   68.2264   -5.5941 O   0  0  0  0  0  0  0  0  0  0  0  0
   15.9665   69.1656   -4.7231 C   0  0  0  0  0  0  0  0  0  0  0  0
   14.7918   67.6323   -5.0824 H   0  0  0  0  0  0  0  0  0  0  0  0
 25 28  1  0
 25 24  1  0
 25 26  1  1
 25 27  2  0
  1  4  1  0
  1 24  1  0
  1  2  1  1
  1  3  2  0
  6 11  1  0
  6 12  1  0
 29 36  1  0
 29 37  1  0
  9  7  1  1
  7 13  1  0
 10  8  1  1
  8 14  1  0
 37 28  1  6
  4  5  1  0
 33 30  1  6
 30 38  1  0
 34 31  1  6
 31 39  1  0
 35 32  1  6
 32 40  1  0
 41 42  1  0
 41 43  1  0
 15 19  2  0
 16 22  2  0
 12 17  1  6
 17 19  1  0
 17 20  1  0
 18 19  1  0
 18 22  1  0
 18 23  1  0
  9 10  1  0
  9 11  1  0
 10 12  1  0
 11  5  1  6
 33 34  1  0
 33 35  1  0
 34 36  1  0
 35 37  1  0
 36 42  1  1
 20 21  2  0
 21 22  1  0
M  CHG  2   2  -1  26  -1
M  END
>  <COMPND>  (10) 
    8629 

>  <AUTHOR>  (10) 
    GENERATED BY OPEN BABEL 3.1.1

>  <MASTER>  (10) 
        0    0    0    0    0    0    0    0   58    0   58    0

>  <minimizedAffinity>  (10) 
-7.73567

>  <CNNscore>  (10) 
0.5221186280

>  <CNNaffinity>  (10) 
4.3219275475

>  <CNN_VS>  (10) 
2.2565588951

>  <CNNaffinity_variance>  (10) 
0.1011898741

$$$$
11
     RDKit          3D

 43 45  0  0  0  0  0  0  0  0999 V2000
   20.6522   71.5284   -1.9589 P   0  0  2  0  0  0  0  0  0  0  0  0
   20.0153   70.0440   -2.0512 O   0  0  0  0  0  0  0  0  0  0  0  0
   19.6777   72.6156   -1.6129 O   0  0  0  0  0  0  0  0  0  0  0  0
   21.4315   71.7049   -3.3658 O   0  0  0  0  0  0  0  0  0  0  0  0
   20.8964   72.5970   -4.3278 C   0  0  0  0  0  0  0  0  0  0  0  0
   19.8297   70.6984   -5.3432 O   0  0  0  0  0  0  0  0  0  0  0  0
   20.2160   72.1154   -7.9574 O   0  0  0  0  0  0  0  0  0  0  0  0
   17.5922   72.6049   -7.3979 O   0  0  0  0  0  0  0  0  0  0  0  0
   19.9125   72.6579   -6.6733 C   0  0  1  0  0  0  0  0  0  0  0  0
   18.4683   72.3788   -6.3125 C   0  0  2  0  0  0  0  0  0  0  0  0
   20.6645   71.8418   -5.6294 C   0  0  1  0  0  0  0  0  0  0  0  0
   18.5233   70.9176   -5.9002 C   0  0  2  0  0  0  0  0  0  0  0  0
   19.7471   72.6206   -8.6407 H   0  0  0  0  0  0  0  0  0  0  0  0
   17.5922   73.5485   -7.6225 H   0  0  0  0  0  0  0  0  0  0  0  0
   17.0415   68.5133   -5.8627 O   0  0  0  0  0  0  0  0  0  0  0  0
   14.7542   69.7681   -2.0633 O   0  0  0  0  0  0  0  0  0  0  0  0
   17.5342   70.5897   -4.9124 N   0  0  0  0  0  0  0  0  0  0  0  0
   15.9039   69.1400   -3.9708 N   0  0  0  0  0  0  0  0  0  0  0  0
   16.8459   69.3562   -4.9847 C   0  0  0  0  0  0  0  0  0  0  0  0
   17.2557   71.4861   -3.8864 C   0  0  0  0  0  0  0  0  0  0  0  0
   16.3535   71.2654   -2.9280 C   0  0  0  0  0  0  0  0  0  0  0  0
   15.5905   70.0005   -2.9307 C   0  0  0  0  0  0  0  0  0  0  0  0
   15.4118   68.2875   -4.0009 H   0  0  0  0  0  0  0  0  0  0  0  0
   21.8567   71.3417   -0.8972 O   0  0  0  0  0  0  0  0  0  0  0  0
   21.8403   70.9230    0.6641 P   0  0  2  0  0  0  0  0  0  0  0  0
   21.6001   69.3238    0.6169 O   0  0  0  0  0  0  0  0  0  0  0  0
   20.8395   71.6754    1.4924 O   0  0  0  0  0  0  0  0  0  0  0  0
   23.3708   71.0913    1.1482 O   0  0  0  0  0  0  0  0  0  0  0  0
   23.6187   73.4320    1.4239 O   0  0  0  0  0  0  0  0  0  0  0  0
   27.3711   72.2219    2.6514 O   0  0  0  0  0  0  0  0  0  0  0  0
   25.4813   73.1715    4.5944 O   0  0  0  0  0  0  0  0  0  0  0  0
   26.0767   70.8859    0.4335 O   0  0  0  0  0  0  0  0  0  0  0  0
   25.9528   72.1168    2.5001 C   0  0  1  0  0  0  0  0  0  0  0  0
   25.3065   73.3208    3.1882 C   0  0  1  0  0  0  0  0  0  0  0  0
   25.6095   72.0999    1.0117 C   0  0  2  0  0  0  0  0  0  0  0  0
   23.8146   73.4213    2.8428 C   0  0  1  0  0  0  0  0  0  0  0  0
   24.1058   72.2546    0.7771 C   0  0  1  0  0  0  0  0  0  0  0  0
   27.5958   72.2327    3.5942 H   0  0  0  0  0  0  0  0  0  0  0  0
   26.4276   73.1087    4.7990 H   0  0  0  0  0  0  0  0  0  0  0  0
   27.0298   70.7998    0.5885 H   0  0  0  0  0  0  0  0  0  0  0  0
   21.7800   74.6044    3.2545 O   0  0  0  0  0  0  0  0  0  0  0  0
   23.1860   74.7011    3.3896 C   0  0  0  0  0  0  0  0  0  0  0  0
   21.3664   75.4120    3.5988 H   0  0  0  0  0  0  0  0  0  0  0  0
 25 28  1  0
 25 24  1  0
 25 26  1  6
 25 27  2  0
  1  4  1  0
  1 24  1  0
  1  2  1  6
  1  3  2  0
  6 11  1  0
  6 12  1  0
 29 36  1  0
 29 37  1  0
  9  7  1  6
  7 13  1  0
 10  8  1  6
  8 14  1  0
 37 28  1  1
  4  5  1  0
 33 30  1  6
 30 38  1  0
 34 31  1  1
 31 39  1  0
 35 32  1  1
 32 40  1  0
 41 42  1  0
 41 43  1  0
 15 19  2  0
 16 22  2  0
 12 17  1  1
 17 19  1  0
 17 20  1  0
 18 19  1  0
 18 22  1  0
 18 23  1  0
  9 10  1  0
  9 11  1  0
 10 12  1  0
 11  5  1  1
 33 34  1  0
 33 35  1  0
 34 36  1  0
 35 37  1  0
 36 42  1  6
 20 21  2  0
 21 22  1  0
M  CHG  2   2  -1  26  -1
M  END
>  <COMPND>  (11) 
    8629 

>  <AUTHOR>  (11) 
    GENERATED BY OPEN BABEL 3.1.1

>  <MASTER>  (11) 
        0    0    0    0    0    0    0    0   58    0   58    0

>  <minimizedAffinity>  (11) 
-6.57504

>  <CNNscore>  (11) 
0.4957592189

>  <CNNaffinity>  (11) 
4.2602872849

>  <CNN_VS>  (11) 
2.1120767593

>  <CNNaffinity_variance>  (11) 
0.0370809585

$$$$
12
     RDKit          3D

 43 45  0  0  0  0  0  0  0  0999 V2000
   23.8152   71.5144   -1.8942 P   0  0  2  0  0  0  0  0  0  0  0  0
   24.9964   71.0934   -2.9164 O   0  0  0  0  0  0  0  0  0  0  0  0
   23.2451   70.3866   -1.0854 O   0  0  0  0  0  0  0  0  0  0  0  0
   22.7613   72.3134   -2.8264 O   0  0  0  0  0  0  0  0  0  0  0  0
   21.6807   71.5942   -3.3947 C   0  0  0  0  0  0  0  0  0  0  0  0
   19.3487   72.1316   -3.6101 O   0  0  0  0  0  0  0  0  0  0  0  0
   19.1075   71.4144   -0.7087 O   0  0  0  0  0  0  0  0  0  0  0  0
   18.1507   69.1847   -1.9536 O   0  0  0  0  0  0  0  0  0  0  0  0
   19.9275   70.8276   -1.7179 C   0  0  1  0  0  0  0  0  0  0  0  0
   19.0877   69.9802   -2.6508 C   0  0  2  0  0  0  0  0  0  0  0  0
   20.4036   71.9415   -2.6420 C   0  0  1  0  0  0  0  0  0  0  0  0
   18.4260   71.0334   -3.5233 C   0  0  2  0  0  0  0  0  0  0  0  0
   18.7916   70.7222   -0.1061 H   0  0  0  0  0  0  0  0  0  0  0  0
   18.6205   68.5305   -1.4132 H   0  0  0  0  0  0  0  0  0  0  0  0
   16.1124   69.5804   -4.2401 O   0  0  0  0  0  0  0  0  0  0  0  0
   17.4663   69.2366   -8.6321 O   0  0  0  0  0  0  0  0  0  0  0  0
   18.1481   70.5521   -4.8472 N   0  0  0  0  0  0  0  0  0  0  0  0
   16.7883   69.4105   -6.4264 N   0  0  0  0  0  0  0  0  0  0  0  0
   16.9578   69.8318   -5.1013 C   0  0  0  0  0  0  0  0  0  0  0  0
   19.0505   70.7959   -5.8768 C   0  0  0  0  0  0  0  0  0  0  0  0
   18.8747   70.3863   -7.1348 C   0  0  0  0  0  0  0  0  0  0  0  0
   17.6568   69.6271   -7.4845 C   0  0  0  0  0  0  0  0  0  0  0  0
   15.9664   68.9065   -6.6270 H   0  0  0  0  0  0  0  0  0  0  0  0
   24.4936   72.6931   -1.0204 O   0  0  0  0  0  0  0  0  0  0  0  0
   24.9499   72.7372    0.5297 P   0  0  2  0  0  0  0  0  0  0  0  0
   25.6821   74.1740    0.6602 O   0  0  0  0  0  0  0  0  0  0  0  0
   25.7938   71.5710    0.9561 O   0  0  0  0  0  0  0  0  0  0  0  0
   23.5736   72.9045    1.3560 O   0  0  0  0  0  0  0  0  0  0  0  0
   24.0143   72.1764    3.5678 O   0  0  0  0  0  0  0  0  0  0  0  0
   19.9947   73.0425    3.9468 O   0  0  0  0  0  0  0  0  0  0  0  0
   21.9386   74.7712    5.1639 O   0  0  0  0  0  0  0  0  0  0  0  0
   20.9869   71.8279    1.5138 O   0  0  0  0  0  0  0  0  0  0  0  0
   21.3244   73.2190    3.4508 C   0  0  1  0  0  0  0  0  0  0  0  0
   22.2491   73.4826    4.6409 C   0  0  1  0  0  0  0  0  0  0  0  0
   21.7518   71.9548    2.7076 C   0  0  2  0  0  0  0  0  0  0  0  0
   23.7239   73.4173    4.2217 C   0  0  1  0  0  0  0  0  0  0  0  0
   23.2462   71.9696    2.3807 C   0  0  1  0  0  0  0  0  0  0  0  0
   19.7170   73.8420    4.4194 H   0  0  0  0  0  0  0  0  0  0  0  0
   21.0044   74.7992    5.4244 H   0  0  0  0  0  0  0  0  0  0  0  0
   20.0428   71.8194    1.7342 H   0  0  0  0  0  0  0  0  0  0  0  0
   23.8837   73.6527    6.5940 O   0  0  0  0  0  0  0  0  0  0  0  0
   24.6644   73.5206    5.4204 C   0  0  0  0  0  0  0  0  0  0  0  0
   24.4690   73.7192    7.3652 H   0  0  0  0  0  0  0  0  0  0  0  0
 25 28  1  0
 25 24  1  0
 25 26  1  6
 25 27  2  0
  1  4  1  0
  1 24  1  0
  1  2  1  6
  1  3  2  0
  6 11  1  0
  6 12  1  0
 29 36  1  0
 29 37  1  0
  9  7  1  1
  7 13  1  0
 10  8  1  1
  8 14  1  0
 37 28  1  6
  4  5  1  0
 33 30  1  1
 30 38  1  0
 34 31  1  6
 31 39  1  0
 35 32  1  6
 32 40  1  0
 41 42  1  0
 41 43  1  0
 15 19  2  0
 16 22  2  0
 12 17  1  6
 17 19  1  0
 17 20  1  0
 18 19  1  0
 18 22  1  0
 18 23  1  0
  9 10  1  0
  9 11  1  0
 10 12  1  0
 11  5  1  6
 33 34  1  0
 33 35  1  0
 34 36  1  0
 35 37  1  0
 36 42  1  1
 20 21  2  0
 21 22  1  0
M  CHG  2   2  -1  26  -1
M  END
>  <COMPND>  (12) 
    8629 

>  <AUTHOR>  (12) 
    GENERATED BY OPEN BABEL 3.1.1

>  <MASTER>  (12) 
        0    0    0    0    0    0    0    0   58    0   58    0

>  <minimizedAffinity>  (12) 
-6.67014

>  <CNNscore>  (12) 
0.4759732485

>  <CNNaffinity>  (12) 
4.3005666733

>  <CNN_VS>  (12) 
2.0469546318

>  <CNNaffinity_variance>  (12) 
0.0035960674

$$$$
13
     RDKit          3D

 43 45  0  0  0  0  0  0  0  0999 V2000
   21.5394   73.5696   -2.5774 P   0  0  2  0  0  0  0  0  0  0  0  0
   22.8880   73.2475   -3.4110 O   0  0  0  0  0  0  0  0  0  0  0  0
   21.1141   75.0085   -2.5913 O   0  0  0  0  0  0  0  0  0  0  0  0
   21.8249   72.9354   -1.1166 O   0  0  0  0  0  0  0  0  0  0  0  0
   22.6422   73.6592   -0.2133 C   0  0  0  0  0  0  0  0  0  0  0  0
   24.7402   73.5279    0.9508 O   0  0  0  0  0  0  0  0  0  0  0  0
   25.2854   71.0800   -0.6927 O   0  0  0  0  0  0  0  0  0  0  0  0
   24.5114   70.0283    1.7013 O   0  0  0  0  0  0  0  0  0  0  0  0
   24.0521   71.5424   -0.1447 C   0  0  1  0  0  0  0  0  0  0  0  0
   24.0197   71.3059    1.3508 C   0  0  2  0  0  0  0  0  0  0  0  0
   24.0435   73.0638   -0.2263 C   0  0  1  0  0  0  0  0  0  0  0  0
   24.8985   72.4324    1.8672 C   0  0  2  0  0  0  0  0  0  0  0  0
   25.3139   70.1107   -0.6518 H   0  0  0  0  0  0  0  0  0  0  0  0
   23.9182   69.3459    1.3503 H   0  0  0  0  0  0  0  0  0  0  0  0
   26.7155   73.2782    3.8574 O   0  0  0  0  0  0  0  0  0  0  0  0
   23.3240   74.0709    6.8757 O   0  0  0  0  0  0  0  0  0  0  0  0
   24.5177   72.8655    3.1820 N   0  0  0  0  0  0  0  0  0  0  0  0
   25.0253   73.6724    5.3586 N   0  0  0  0  0  0  0  0  0  0  0  0
   25.5084   73.2693    4.1072 C   0  0  0  0  0  0  0  0  0  0  0  0
   23.1748   72.8873    3.5425 C   0  0  0  0  0  0  0  0  0  0  0  0
   22.7306   73.2732    4.7405 C   0  0  0  0  0  0  0  0  0  0  0  0
   23.7009   73.7103    5.7649 C   0  0  0  0  0  0  0  0  0  0  0  0
   25.6974   73.9576    6.0195 H   0  0  0  0  0  0  0  0  0  0  0  0
   20.4645   72.5443   -3.2148 O   0  0  0  0  0  0  0  0  0  0  0  0
   20.6691   71.1820   -4.0606 P   0  0  2  0  0  0  0  0  0  0  0  0
   21.5491   70.2570   -3.0670 O   0  0  0  0  0  0  0  0  0  0  0  0
   21.2775   71.3859   -5.4179 O   0  0  0  0  0  0  0  0  0  0  0  0
   19.2114   70.4893   -4.0783 O   0  0  0  0  0  0  0  0  0  0  0  0
   17.6187   71.1028   -5.7225 O   0  0  0  0  0  0  0  0  0  0  0  0
   15.0616   69.5645   -2.8685 O   0  0  0  0  0  0  0  0  0  0  0  0
   15.5464   68.0860   -5.2824 O   0  0  0  0  0  0  0  0  0  0  0  0
   17.3684   71.1131   -2.0561 O   0  0  0  0  0  0  0  0  0  0  0  0
   16.2738   69.6473   -3.6229 C   0  0  1  0  0  0  0  0  0  0  0  0
   15.9337   69.4452   -5.1008 C   0  0  1  0  0  0  0  0  0  0  0  0
   16.9078   71.0190   -3.3998 C   0  0  2  0  0  0  0  0  0  0  0  0
   17.1330   69.7834   -5.9965 C   0  0  1  0  0  0  0  0  0  0  0  0
   18.0592   71.2743   -4.3740 C   0  0  1  0  0  0  0  0  0  0  0  0
   14.6542   68.6957   -3.0054 H   0  0  0  0  0  0  0  0  0  0  0  0
   14.7886   67.8853   -4.7109 H   0  0  0  0  0  0  0  0  0  0  0  0
   16.6302   70.9498   -1.4492 H   0  0  0  0  0  0  0  0  0  0  0  0
   15.3587   69.7499   -7.5964 O   0  0  0  0  0  0  0  0  0  0  0  0
   16.7695   69.7408   -7.4791 C   0  0  0  0  0  0  0  0  0  0  0  0
   15.1126   69.7234   -8.5347 H   0  0  0  0  0  0  0  0  0  0  0  0
 25 28  1  0
 25 24  1  0
 25 26  1  1
 25 27  2  0
  1  4  1  0
  1 24  1  0
  1  2  1  6
  1  3  2  0
  6 11  1  0
  6 12  1  0
 29 36  1  0
 29 37  1  0
  9  7  1  1
  7 13  1  0
 10  8  1  6
  8 14  1  0
 37 28  1  1
  4  5  1  0
 33 30  1  1
 30 38  1  0
 34 31  1  1
 31 39  1  0
 35 32  1  1
 32 40  1  0
 41 42  1  0
 41 43  1  0
 15 19  2  0
 16 22  2  0
 12 17  1  1
 17 19  1  0
 17 20  1  0
 18 19  1  0
 18 22  1  0
 18 23  1  0
  9 10  1  0
  9 11  1  0
 10 12  1  0
 11  5  1  1
 33 34  1  0
 33 35  1  0
 34 36  1  0
 35 37  1  0
 36 42  1  6
 20 21  2  0
 21 22  1  0
M  CHG  2   2  -1  26  -1
M  END
>  <COMPND>  (13) 
    8629 

>  <AUTHOR>  (13) 
    GENERATED BY OPEN BABEL 3.1.1

>  <MASTER>  (13) 
        0    0    0    0    0    0    0    0   58    0   58    0

>  <minimizedAffinity>  (13) 
-6.56567

>  <CNNscore>  (13) 
0.4678818285

>  <CNNaffinity>  (13) 
4.1808457375

>  <CNN_VS>  (13) 
1.9561417103

>  <CNNaffinity_variance>  (13) 
0.3325777948

$$$$
14
     RDKit          3D

 43 45  0  0  0  0  0  0  0  0999 V2000
   19.9744   71.8973   -2.3344 P   0  0  2  0  0  0  0  0  0  0  0  0
   18.4952   72.5483   -2.4089 O   0  0  0  0  0  0  0  0  0  0  0  0
   20.0700   70.6307   -1.5356 O   0  0  0  0  0  0  0  0  0  0  0  0
   20.9108   73.1173   -1.8317 O   0  0  0  0  0  0  0  0  0  0  0  0
   21.7171   72.9219   -0.6831 C   0  0  0  0  0  0  0  0  0  0  0  0
   24.0504   73.3003   -0.2516 O   0  0  0  0  0  0  0  0  0  0  0  0
   24.5603   70.8421   -1.8912 O   0  0  0  0  0  0  0  0  0  0  0  0
   24.7965   69.9132    0.6618 O   0  0  0  0  0  0  0  0  0  0  0  0
   23.4874   71.1211   -0.9932 C   0  0  1  0  0  0  0  0  0  0  0  0
   23.9665   71.0353    0.4410 C   0  0  2  0  0  0  0  0  0  0  0  0
   23.1380   72.5983   -1.1240 C   0  0  1  0  0  0  0  0  0  0  0  0
   24.7070   72.3517    0.6051 C   0  0  2  0  0  0  0  0  0  0  0  0
   24.8009   69.9042   -1.8258 H   0  0  0  0  0  0  0  0  0  0  0  0
   24.2796   69.1007    0.5458 H   0  0  0  0  0  0  0  0  0  0  0  0
   26.6084   71.7030    2.5905 O   0  0  0  0  0  0  0  0  0  0  0  0
   24.4546   74.2731    5.7523 O   0  0  0  0  0  0  0  0  0  0  0  0
   24.6677   72.8376    1.9555 N   0  0  0  0  0  0  0  0  0  0  0  0
   25.5346   72.9834    4.1632 N   0  0  0  0  0  0  0  0  0  0  0  0
   25.6705   72.4508    2.8748 C   0  0  0  0  0  0  0  0  0  0  0  0
   23.6431   73.6882    2.3563 C   0  0  0  0  0  0  0  0  0  0  0  0
   23.5270   74.1864    3.5890 C   0  0  0  0  0  0  0  0  0  0  0  0
   24.5337   73.8315    4.6101 C   0  0  0  0  0  0  0  0  0  0  0  0
   26.2215   72.7274    4.8207 H   0  0  0  0  0  0  0  0  0  0  0  0
   20.3826   71.7435   -3.8909 O   0  0  0  0  0  0  0  0  0  0  0  0
   20.2496   72.7730   -5.1300 P   0  0  2  0  0  0  0  0  0  0  0  0
   21.7381   72.7852   -5.7637 O   0  0  0  0  0  0  0  0  0  0  0  0
   19.7270   74.1283   -4.7505 O   0  0  0  0  0  0  0  0  0  0  0  0
   19.3500   71.9896   -6.2172 O   0  0  0  0  0  0  0  0  0  0  0  0
   18.8721   69.7615   -5.5663 O   0  0  0  0  0  0  0  0  0  0  0  0
   17.5681   69.5994   -9.4809 O   0  0  0  0  0  0  0  0  0  0  0  0
   15.6474   69.6074   -7.3458 O   0  0  0  0  0  0  0  0  0  0  0  0
   19.9478   71.1063   -8.8129 O   0  0  0  0  0  0  0  0  0  0  0  0
   17.7958   70.2095   -8.2076 C   0  0  1  0  0  0  0  0  0  0  0  0
   17.0435   69.4024   -7.1477 C   0  0  1  0  0  0  0  0  0  0  0  0
   19.2954   70.2130   -7.9168 C   0  0  2  0  0  0  0  0  0  0  0  0
   17.4511   69.8318   -5.7319 C   0  0  1  0  0  0  0  0  0  0  0  0
   19.5888   70.6071   -6.4681 C   0  0  1  0  0  0  0  0  0  0  0  0
   16.6179   69.5944   -9.6719 H   0  0  0  0  0  0  0  0  0  0  0  0
   15.4033   69.3328   -8.2436 H   0  0  0  0  0  0  0  0  0  0  0  0
   19.7545   70.8460   -9.7265 H   0  0  0  0  0  0  0  0  0  0  0  0
   15.4235   69.0514   -4.7374 O   0  0  0  0  0  0  0  0  0  0  0  0
   16.8324   68.9348   -4.6619 C   0  0  0  0  0  0  0  0  0  0  0  0
   15.0162   68.4857   -4.0623 H   0  0  0  0  0  0  0  0  0  0  0  0
 25 28  1  0
 25 24  1  0
 25 26  1  6
 25 27  2  0
  1  4  1  0
  1 24  1  0
  1  2  1  6
  1  3  2  0
  6 11  1  0
  6 12  1  0
 29 36  1  0
 29 37  1  0
  9  7  1  6
  7 13  1  0
 10  8  1  6
  8 14  1  0
 37 28  1  6
  4  5  1  0
 33 30  1  6
 30 38  1  0
 34 31  1  1
 31 39  1  0
 35 32  1  6
 32 40  1  0
 41 42  1  0
 41 43  1  0
 15 19  2  0
 16 22  2  0
 12 17  1  1
 17 19  1  0
 17 20  1  0
 18 19  1  0
 18 22  1  0
 18 23  1  0
  9 10  1  0
  9 11  1  0
 10 12  1  0
 11  5  1  1
 33 34  1  0
 33 35  1  0
 34 36  1  0
 35 37  1  0
 36 42  1  1
 20 21  2  0
 21 22  1  0
M  CHG  2   2  -1  26  -1
M  END
>  <COMPND>  (14) 
    8629 

>  <AUTHOR>  (14) 
    GENERATED BY OPEN BABEL 3.1.1

>  <MASTER>  (14) 
        0    0    0    0    0    0    0    0   58    0   58    0

>  <minimizedAffinity>  (14) 
-6.82356

>  <CNNscore>  (14) 
0.4476235211

>  <CNNaffinity>  (14) 
4.2464714050

>  <CNN_VS>  (14) 
1.9008204937

>  <CNNaffinity_variance>  (14) 
0.4146219194

$$$$
15
     RDKit          3D

 43 45  0  0  0  0  0  0  0  0999 V2000
   23.8218   72.1601   -2.9041 P   0  0  2  0  0  0  0  0  0  0  0  0
   24.9629   72.4929   -4.0016 O   0  0  0  0  0  0  0  0  0  0  0  0
   23.2990   73.3491   -2.1529 O   0  0  0  0  0  0  0  0  0  0  0  0
   24.4818   70.9921   -1.9995 O   0  0  0  0  0  0  0  0  0  0  0  0
   24.8449   71.2952   -0.6638 C   0  0  0  0  0  0  0  0  0  0  0  0
   24.6721   70.4577    1.5818 O   0  0  0  0  0  0  0  0  0  0  0  0
   21.8362   69.7590    0.9036 O   0  0  0  0  0  0  0  0  0  0  0  0
   21.5556   72.0703    2.3234 O   0  0  0  0  0  0  0  0  0  0  0  0
   22.6137   70.8800    0.4862 C   0  0  1  0  0  0  0  0  0  0  0  0
   22.7670   71.8667    1.6249 C   0  0  2  0  0  0  0  0  0  0  0  0
   24.0471   70.4064    0.2806 C   0  0  1  0  0  0  0  0  0  0  0  0
   23.8299   71.1982    2.4802 C   0  0  2  0  0  0  0  0  0  0  0  0
   20.9165   70.0368    1.0410 H   0  0  0  0  0  0  0  0  0  0  0  0
   20.9121   72.4979    1.7371 H   0  0  0  0  0  0  0  0  0  0  0  0
   23.1535   72.2827    4.9989 O   0  0  0  0  0  0  0  0  0  0  0  0
   26.9884   74.8354    5.1341 O   0  0  0  0  0  0  0  0  0  0  0  0
   24.6336   72.1480    3.1966 N   0  0  0  0  0  0  0  0  0  0  0  0
   25.0636   73.5528    5.0643 N   0  0  0  0  0  0  0  0  0  0  0  0
   24.2031   72.6312    4.4543 C   0  0  0  0  0  0  0  0  0  0  0  0
   25.8341   72.5905    2.6519 C   0  0  0  0  0  0  0  0  0  0  0  0
   26.6427   73.4707    3.2458 C   0  0  0  0  0  0  0  0  0  0  0  0
   26.2664   74.0244    4.5626 C   0  0  0  0  0  0  0  0  0  0  0  0
   24.7841   73.9033    5.9411 H   0  0  0  0  0  0  0  0  0  0  0  0
   22.7085   71.3665   -3.7665 O   0  0  0  0  0  0  0  0  0  0  0  0
   21.3058   71.8605   -4.4000 P   0  0  2  0  0  0  0  0  0  0  0  0
   21.4212   71.4137   -5.9507 O   0  0  0  0  0  0  0  0  0  0  0  0
   21.0183   73.3198   -4.1957 O   0  0  0  0  0  0  0  0  0  0  0  0
   20.2008   70.8665   -3.7706 O   0  0  0  0  0  0  0  0  0  0  0  0
   18.0408   71.8386   -3.8484 O   0  0  0  0  0  0  0  0  0  0  0  0
   17.1904   68.5254   -1.5353 O   0  0  0  0  0  0  0  0  0  0  0  0
   16.2747   68.6286   -4.2554 O   0  0  0  0  0  0  0  0  0  0  0  0
   19.6918   69.9363   -1.1724 O   0  0  0  0  0  0  0  0  0  0  0  0
   17.8527   69.2562   -2.5710 C   0  0  1  0  0  0  0  0  0  0  0  0
   16.7948   69.7563   -3.5567 C   0  0  1  0  0  0  0  0  0  0  0  0
   18.6065   70.4305   -1.9497 C   0  0  2  0  0  0  0  0  0  0  0  0
   17.3920   70.7678   -4.5443 C   0  0  1  0  0  0  0  0  0  0  0  0
   19.1168   71.4017   -3.0157 C   0  0  1  0  0  0  0  0  0  0  0  0
   16.7103   67.7780   -1.9231 H   0  0  0  0  0  0  0  0  0  0  0  0
   15.9011   67.9974   -3.6203 H   0  0  0  0  0  0  0  0  0  0  0  0
   19.3557   69.3230   -0.5010 H   0  0  0  0  0  0  0  0  0  0  0  0
   15.0498   71.0592   -4.9159 O   0  0  0  0  0  0  0  0  0  0  0  0
   16.3229   71.3975   -5.4346 C   0  0  0  0  0  0  0  0  0  0  0  0
   14.3595   71.4534   -5.4724 H   0  0  0  0  0  0  0  0  0  0  0  0
 25 28  1  0
 25 24  1  0
 25 26  1  6
 25 27  2  0
  1  4  1  0
  1 24  1  0
  1  2  1  6
  1  3  2  0
  6 11  1  0
  6 12  1  0
 29 36  1  0
 29 37  1  0
  9  7  1  1
  7 13  1  0
 10  8  1  1
  8 14  1  0
 37 28  1  6
  4  5  1  0
 33 30  1  1
 30 38  1  0
 34 31  1  6
 31 39  1  0
 35 32  1  6
 32 40  1  0
 41 42  1  0
 41 43  1  0
 15 19  2  0
 16 22  2  0
 12 17  1  6
 17 19  1  0
 17 20  1  0
 18 19  1  0
 18 22  1  0
 18 23  1  0
  9 10  1  0
  9 11  1  0
 10 12  1  0
 11  5  1  6
 33 34  1  0
 33 35  1  0
 34 36  1  0
 35 37  1  0
 36 42  1  1
 20 21  2  0
 21 22  1  0
M  CHG  2   2  -1  26  -1
M  END
>  <COMPND>  (15) 
    8629 

>  <AUTHOR>  (15) 
    GENERATED BY OPEN BABEL 3.1.1

>  <MASTER>  (15) 
        0    0    0    0    0    0    0    0   58    0   58    0

>  <minimizedAffinity>  (15) 
-7.90599

>  <CNNscore>  (15) 
0.4277067184

>  <CNNaffinity>  (15) 
4.1622323990

>  <CNN_VS>  (15) 
1.7802147865

>  <CNNaffinity_variance>  (15) 
0.2522849441

$$$$
16
     RDKit          3D

 43 45  0  0  0  0  0  0  0  0999 V2000
   20.7002   71.6172   -0.8816 P   0  0  2  0  0  0  0  0  0  0  0  0
   20.5348   72.3658    0.5431 O   0  0  0  0  0  0  0  0  0  0  0  0
   20.2498   70.1861   -0.9016 O   0  0  0  0  0  0  0  0  0  0  0  0
   22.2484   71.8721   -1.2768 O   0  0  0  0  0  0  0  0  0  0  0  0
   22.9266   72.9653   -0.6828 C   0  0  0  0  0  0  0  0  0  0  0  0
   24.8167   73.3779    0.7424 O   0  0  0  0  0  0  0  0  0  0  0  0
   25.7650   70.6423   -0.0375 O   0  0  0  0  0  0  0  0  0  0  0  0
   24.6856   70.2162    2.4303 O   0  0  0  0  0  0  0  0  0  0  0  0
   24.4342   71.1073    0.1822 C   0  0  1  0  0  0  0  0  0  0  0  0
   24.1788   71.2897    1.6638 C   0  0  2  0  0  0  0  0  0  0  0  0
   24.3458   72.5380   -0.3343 C   0  0  1  0  0  0  0  0  0  0  0  0
   24.8939   72.5997    1.9479 C   0  0  2  0  0  0  0  0  0  0  0  0
   25.8458   69.7302    0.2841 H   0  0  0  0  0  0  0  0  0  0  0  0
   24.1987   69.4058    2.2137 H   0  0  0  0  0  0  0  0  0  0  0  0
   26.3238   74.0019    3.9396 O   0  0  0  0  0  0  0  0  0  0  0  0
   22.4449   75.3888    6.0065 O   0  0  0  0  0  0  0  0  0  0  0  0
   24.2829   73.3362    3.0183 N   0  0  0  0  0  0  0  0  0  0  0  0
   24.3912   74.6915    4.9671 N   0  0  0  0  0  0  0  0  0  0  0  0
   25.0913   74.0045    3.9671 C   0  0  0  0  0  0  0  0  0  0  0  0
   22.8970   73.3908    3.1192 C   0  0  0  0  0  0  0  0  0  0  0  0
   22.2448   74.0492    4.0796 C   0  0  0  0  0  0  0  0  0  0  0  0
   23.0153   74.7742    5.1106 C   0  0  0  0  0  0  0  0  0  0  0  0
   24.9336   75.1643    5.6394 H   0  0  0  0  0  0  0  0  0  0  0  0
   19.9013   72.5882   -1.8973 O   0  0  0  0  0  0  0  0  0  0  0  0
   18.6718   72.2910   -2.9037 P   0  0  2  0  0  0  0  0  0  0  0  0
   17.8477   73.6832   -2.9041 O   0  0  0  0  0  0  0  0  0  0  0  0
   17.8534   71.0871   -2.5366 O   0  0  0  0  0  0  0  0  0  0  0  0
   19.3497   72.2181   -4.3666 O   0  0  0  0  0  0  0  0  0  0  0  0
   19.4884   70.3410   -5.8067 O   0  0  0  0  0  0  0  0  0  0  0  0
   23.0309   72.2084   -6.8138 O   0  0  0  0  0  0  0  0  0  0  0  0
   20.8335   72.2445   -8.6626 O   0  0  0  0  0  0  0  0  0  0  0  0
   22.1390   72.1926   -4.0599 O   0  0  0  0  0  0  0  0  0  0  0  0
   21.6576   72.1451   -6.4195 C   0  0  1  0  0  0  0  0  0  0  0  0
   20.8789   71.4074   -7.5104 C   0  0  1  0  0  0  0  0  0  0  0  0
   21.5541   71.4018   -5.0890 C   0  0  2  0  0  0  0  0  0  0  0  0
   19.4581   71.0655   -7.0420 C   0  0  1  0  0  0  0  0  0  0  0  0
   20.1027   71.0672   -4.7403 C   0  0  1  0  0  0  0  0  0  0  0  0
   23.1036   72.6796   -7.6577 H   0  0  0  0  0  0  0  0  0  0  0  0
   21.7369   72.4533   -8.9479 H   0  0  0  0  0  0  0  0  0  0  0  0
   23.0577   72.3974   -4.2924 H   0  0  0  0  0  0  0  0  0  0  0  0
   17.4964   70.8285   -8.3853 O   0  0  0  0  0  0  0  0  0  0  0  0
   18.7170   70.1930   -8.0527 C   0  0  0  0  0  0  0  0  0  0  0  0
   17.0141   70.2847   -9.0282 H   0  0  0  0  0  0  0  0  0  0  0  0
 25 28  1  0
 25 24  1  0
 25 26  1  6
 25 27  2  0
  1  4  1  0
  1 24  1  0
  1  2  1  1
  1  3  2  0
  6 11  1  0
  6 12  1  0
 29 36  1  0
 29 37  1  0
  9  7  1  1
  7 13  1  0
 10  8  1  1
  8 14  1  0
 37 28  1  6
  4  5  1  0
 33 30  1  6
 30 38  1  0
 34 31  1  6
 31 39  1  0
 35 32  1  1
 32 40  1  0
 41 42  1  0
 41 43  1  0
 15 19  2  0
 16 22  2  0
 12 17  1  1
 17 19  1  0
 17 20  1  0
 18 19  1  0
 18 22  1  0
 18 23  1  0
  9 10  1  0
  9 11  1  0
 10 12  1  0
 11  5  1  1
 33 34  1  0
 33 35  1  0
 34 36  1  0
 35 37  1  0
 36 42  1  6
 20 21  2  0
 21 22  1  0
M  CHG  2   2  -1  26  -1
M  END
>  <COMPND>  (16) 
    8629 

>  <AUTHOR>  (16) 
    GENERATED BY OPEN BABEL 3.1.1

>  <MASTER>  (16) 
        0    0    0    0    0    0    0    0   58    0   58    0

>  <minimizedAffinity>  (16) 
-6.17912

>  <CNNscore>  (16) 
0.4243722558

>  <CNNaffinity>  (16) 
4.0652527809

>  <CNN_VS>  (16) 
1.7251805067

>  <CNNaffinity_variance>  (16) 
0.1703619659

$$$$
17
     RDKit          3D

 43 45  0  0  0  0  0  0  0  0999 V2000
   17.7142   69.9779   -2.0425 P   0  0  2  0  0  0  0  0  0  0  0  0
   17.2704   68.4587   -1.7070 O   0  0  0  0  0  0  0  0  0  0  0  0
   16.8856   71.0406   -1.3827 O   0  0  0  0  0  0  0  0  0  0  0  0
   17.7561   70.0222   -3.6593 O   0  0  0  0  0  0  0  0  0  0  0  0
   16.8861   69.1684   -4.3818 C   0  0  0  0  0  0  0  0  0  0  0  0
   16.8803   71.2067   -5.6543 O   0  0  0  0  0  0  0  0  0  0  0  0
   14.9199   69.8474   -7.4708 O   0  0  0  0  0  0  0  0  0  0  0  0
   17.2606   69.6296   -8.8528 O   0  0  0  0  0  0  0  0  0  0  0  0
   16.0387   69.2972   -6.7773 C   0  0  1  0  0  0  0  0  0  0  0  0
   17.3308   69.7204   -7.4444 C   0  0  2  0  0  0  0  0  0  0  0  0
   16.1382   69.9892   -5.4236 C   0  0  1  0  0  0  0  0  0  0  0  0
   17.4826   71.1516   -6.9577 C   0  0  2  0  0  0  0  0  0  0  0  0
   14.8358   69.4207   -8.3384 H   0  0  0  0  0  0  0  0  0  0  0  0
   17.1645   68.7001   -9.1127 H   0  0  0  0  0  0  0  0  0  0  0  0
   18.3445   73.8104   -6.5505 O   0  0  0  0  0  0  0  0  0  0  0  0
   22.7829   72.5691   -6.5747 O   0  0  0  0  0  0  0  0  0  0  0  0
   18.8576   71.5516   -6.8534 N   0  0  0  0  0  0  0  0  0  0  0  0
   20.5538   73.1901   -6.5627 N   0  0  0  0  0  0  0  0  0  0  0  0
   19.1836   72.9128   -6.6499 C   0  0  0  0  0  0  0  0  0  0  0  0
   19.8659   70.5990   -6.9524 C   0  0  0  0  0  0  0  0  0  0  0  0
   21.1679   70.8801   -6.8684 C   0  0  0  0  0  0  0  0  0  0  0  0
   21.5935   72.2786   -6.6561 C   0  0  0  0  0  0  0  0  0  0  0  0
   20.8047   74.1319   -6.4214 H   0  0  0  0  0  0  0  0  0  0  0  0
   19.2791   69.9971   -1.6379 O   0  0  0  0  0  0  0  0  0  0  0  0
   20.4970   70.9278   -2.1514 P   0  0  2  0  0  0  0  0  0  0  0  0
   19.8294   72.3991   -2.2360 O   0  0  0  0  0  0  0  0  0  0  0  0
   21.1314   70.4613   -3.4295 O   0  0  0  0  0  0  0  0  0  0  0  0
   21.5064   71.0099   -0.8946 O   0  0  0  0  0  0  0  0  0  0  0  0
   22.4906   72.7366    0.3962 O   0  0  0  0  0  0  0  0  0  0  0  0
   25.8378   70.4067   -0.2505 O   0  0  0  0  0  0  0  0  0  0  0  0
   24.6356   70.4688    2.3570 O   0  0  0  0  0  0  0  0  0  0  0  0
   23.8849   70.7457   -2.3602 O   0  0  0  0  0  0  0  0  0  0  0  0
   24.4485   70.6560   -0.0202 C   0  0  1  0  0  0  0  0  0  0  0  0
   24.3075   71.3860    1.3170 C   0  0  1  0  0  0  0  0  0  0  0  0
   23.8992   71.5115   -1.1603 C   0  0  2  0  0  0  0  0  0  0  0  0
   22.8824   71.9226    1.5077 C   0  0  1  0  0  0  0  0  0  0  0  0
   22.4959   72.0346   -0.8484 C   0  0  1  0  0  0  0  0  0  0  0  0
   26.1926   69.8635    0.4697 H   0  0  0  0  0  0  0  0  0  0  0  0
   25.5376   70.1371    2.2246 H   0  0  0  0  0  0  0  0  0  0  0  0
   24.7790   70.4205   -2.5468 H   0  0  0  0  0  0  0  0  0  0  0  0
   22.7435   71.9398    3.8929 O   0  0  0  0  0  0  0  0  0  0  0  0
   22.7600   72.7883    2.7597 C   0  0  0  0  0  0  0  0  0  0  0  0
   22.6663   72.4771    4.6973 H   0  0  0  0  0  0  0  0  0  0  0  0
 25 28  1  0
 25 24  1  0
 25 26  1  6
 25 27  2  0
  1  4  1  0
  1 24  1  0
  1  2  1  6
  1  3  2  0
  6 11  1  0
  6 12  1  0
 29 36  1  0
 29 37  1  0
  9  7  1  6
  7 13  1  0
 10  8  1  6
  8 14  1  0
 37 28  1  1
  4  5  1  0
 33 30  1  6
 30 38  1  0
 34 31  1  1
 31 39  1  0
 35 32  1  6
 32 40  1  0
 41 42  1  0
 41 43  1  0
 15 19  2  0
 16 22  2  0
 12 17  1  1
 17 19  1  0
 17 20  1  0
 18 19  1  0
 18 22  1  0
 18 23  1  0
  9 10  1  0
  9 11  1  0
 10 12  1  0
 11  5  1  1
 33 34  1  0
 33 35  1  0
 34 36  1  0
 35 37  1  0
 36 42  1  1
 20 21  2  0
 21 22  1  0
M  CHG  2   2  -1  26  -1
M  END
>  <COMPND>  (17) 
    8629 

>  <AUTHOR>  (17) 
    GENERATED BY OPEN BABEL 3.1.1

>  <MASTER>  (17) 
        0    0    0    0    0    0    0    0   58    0   58    0

>  <minimizedAffinity>  (17) 
-8.00302

>  <CNNscore>  (17) 
0.4226576984

>  <CNNaffinity>  (17) 
4.2091016769

>  <CNN_VS>  (17) 
1.7790092230

>  <CNNaffinity_variance>  (17) 
0.6925432086

$$$$
18
     RDKit          3D

 43 45  0  0  0  0  0  0  0  0999 V2000
   21.1650   73.3288   -2.3650 P   0  0  2  0  0  0  0  0  0  0  0  0
   22.4336   73.5590   -3.3423 O   0  0  0  0  0  0  0  0  0  0  0  0
   20.0262   74.2843   -2.5690 O   0  0  0  0  0  0  0  0  0  0  0  0
   21.8139   73.3153   -0.8829 O   0  0  0  0  0  0  0  0  0  0  0  0
   23.2087   73.0992   -0.7575 C   0  0  0  0  0  0  0  0  0  0  0  0
   24.7705   71.7863    0.5117 O   0  0  0  0  0  0  0  0  0  0  0  0
   22.4174   70.1160    1.3264 O   0  0  0  0  0  0  0  0  0  0  0  0
   22.8066   71.7004    3.5116 O   0  0  0  0  0  0  0  0  0  0  0  0
   22.4918   71.5237    1.1072 C   0  0  1  0  0  0  0  0  0  0  0  0
   23.2170   72.1969    2.2538 C   0  0  2  0  0  0  0  0  0  0  0  0
   23.4432   71.7675   -0.0577 C   0  0  1  0  0  0  0  0  0  0  0  0
   24.6682   71.8727    1.9425 C   0  0  2  0  0  0  0  0  0  0  0  0
   21.8151   69.9355    2.0658 H   0  0  0  0  0  0  0  0  0  0  0  0
   21.8771   71.9321    3.6632 H   0  0  0  0  0  0  0  0  0  0  0  0
   27.3662   71.4109    2.6392 O   0  0  0  0  0  0  0  0  0  0  0  0
   28.0301   75.8366    3.7408 O   0  0  0  0  0  0  0  0  0  0  0  0
   25.5691   72.8863    2.4140 N   0  0  0  0  0  0  0  0  0  0  0  0
   27.6946   73.6150    3.1870 N   0  0  0  0  0  0  0  0  0  0  0  0
   26.9041   72.5495    2.7377 C   0  0  0  0  0  0  0  0  0  0  0  0
   25.1265   74.1975    2.5510 C   0  0  0  0  0  0  0  0  0  0  0  0
   25.8926   75.2018    2.9820 C   0  0  0  0  0  0  0  0  0  0  0  0
   27.3003   74.9346    3.3413 C   0  0  0  0  0  0  0  0  0  0  0  0
   28.6282   73.4040    3.4188 H   0  0  0  0  0  0  0  0  0  0  0  0
   20.7925   71.7755   -2.6127 O   0  0  0  0  0  0  0  0  0  0  0  0
   19.7769   70.7898   -1.8316 P   0  0  2  0  0  0  0  0  0  0  0  0
   18.6715   71.8024   -1.2232 O   0  0  0  0  0  0  0  0  0  0  0  0
   20.4375   69.9085   -0.8114 O   0  0  0  0  0  0  0  0  0  0  0  0
   19.0003   69.9933   -3.0010 O   0  0  0  0  0  0  0  0  0  0  0  0
   18.2949   71.2284   -4.8967 O   0  0  0  0  0  0  0  0  0  0  0  0
   15.8769   67.9099   -5.3342 O   0  0  0  0  0  0  0  0  0  0  0  0
   18.0950   68.2932   -7.1178 O   0  0  0  0  0  0  0  0  0  0  0  0
   16.4034   68.9749   -2.6945 O   0  0  0  0  0  0  0  0  0  0  0  0
   17.0698   68.6154   -4.9810 C   0  0  1  0  0  0  0  0  0  0  0  0
   17.6101   69.3026   -6.2367 C   0  0  1  0  0  0  0  0  0  0  0  0
   16.7392   69.6468   -3.9038 C   0  0  2  0  0  0  0  0  0  0  0  0
   18.7309   70.2913   -5.8883 C   0  0  1  0  0  0  0  0  0  0  0  0
   17.9033   70.6111   -3.6689 C   0  0  1  0  0  0  0  0  0  0  0  0
   16.0800   67.2531   -6.0175 H   0  0  0  0  0  0  0  0  0  0  0  0
   17.3777   67.6753   -7.3295 H   0  0  0  0  0  0  0  0  0  0  0  0
   15.6652   68.3678   -2.8563 H   0  0  0  0  0  0  0  0  0  0  0  0
   18.1209   71.1143   -8.0469 O   0  0  0  0  0  0  0  0  0  0  0  0
   19.1763   71.1022   -7.1033 C   0  0  0  0  0  0  0  0  0  0  0  0
   18.3900   71.6272   -8.8255 H   0  0  0  0  0  0  0  0  0  0  0  0
 25 28  1  0
 25 24  1  0
 25 26  1  1
 25 27  2  0
  1  4  1  0
  1 24  1  0
  1  2  1  6
  1  3  2  0
  6 11  1  0
  6 12  1  0
 29 36  1  0
 29 37  1  0
  9  7  1  1
  7 13  1  0
 10  8  1  1
  8 14  1  0
 37 28  1  6
  4  5  1  0
 33 30  1  6
 30 38  1  0
 34 31  1  6
 31 39  1  0
 35 32  1  1
 32 40  1  0
 41 42  1  0
 41 43  1  0
 15 19  2  0
 16 22  2  0
 12 17  1  6
 17 19  1  0
 17 20  1  0
 18 19  1  0
 18 22  1  0
 18 23  1  0
  9 10  1  0
  9 11  1  0
 10 12  1  0
 11  5  1  1
 33 34  1  0
 33 35  1  0
 34 36  1  0
 35 37  1  0
 36 42  1  6
 20 21  2  0
 21 22  1  0
M  CHG  2   2  -1  26  -1
M  END
>  <COMPND>  (18) 
    8629 

>  <AUTHOR>  (18) 
    GENERATED BY OPEN BABEL 3.1.1

>  <MASTER>  (18) 
        0    0    0    0    0    0    0    0   58    0   58    0

>  <minimizedAffinity>  (18) 
-6.79509

>  <CNNscore>  (18) 
0.4018475115

>  <CNNaffinity>  (18) 
4.0807504654

>  <CNN_VS>  (18) 
1.6398394108

>  <CNNaffinity_variance>  (18) 
0.2268435955

$$$$
19
     RDKit          3D

 43 45  0  0  0  0  0  0  0  0999 V2000
   23.0533   73.2285   -4.6882 P   0  0  2  0  0  0  0  0  0  0  0  0
   23.0684   74.8463   -4.6901 O   0  0  0  0  0  0  0  0  0  0  0  0
   23.8363   72.5862   -5.7954 O   0  0  0  0  0  0  0  0  0  0  0  0
   21.4801   72.8548   -4.6318 O   0  0  0  0  0  0  0  0  0  0  0  0
   20.8165   72.5383   -5.8431 C   0  0  0  0  0  0  0  0  0  0  0  0
   19.7302   70.5077   -5.1575 O   0  0  0  0  0  0  0  0  0  0  0  0
   20.9318   69.2592   -7.6046 O   0  0  0  0  0  0  0  0  0  0  0  0
   18.3606   69.7321   -8.3802 O   0  0  0  0  0  0  0  0  0  0  0  0
   20.4272   70.5810   -7.4212 C   0  0  1  0  0  0  0  0  0  0  0  0
   18.9134   70.5651   -7.3815 C   0  0  2  0  0  0  0  0  0  0  0  0
   20.7779   71.0251   -6.0066 C   0  0  1  0  0  0  0  0  0  0  0  0
   18.6404   70.0542   -5.9770 C   0  0  2  0  0  0  0  0  0  0  0  0
   20.7203   68.9540   -8.5013 H   0  0  0  0  0  0  0  0  0  0  0  0
   18.5612   70.0993   -9.2552 H   0  0  0  0  0  0  0  0  0  0  0  0
   16.7230   68.4839   -4.6220 O   0  0  0  0  0  0  0  0  0  0  0  0
   13.9553   72.1088   -3.9575 O   0  0  0  0  0  0  0  0  0  0  0  0
   17.4098   70.5619   -5.4391 N   0  0  0  0  0  0  0  0  0  0  0  0
   15.3466   70.2901   -4.2921 N   0  0  0  0  0  0  0  0  0  0  0  0
   16.5150   69.6890   -4.7773 C   0  0  0  0  0  0  0  0  0  0  0  0
   17.1008   71.9114   -5.5701 C   0  0  0  0  0  0  0  0  0  0  0  0
   15.9817   72.4687   -5.1029 C   0  0  0  0  0  0  0  0  0  0  0  0
   14.9938   71.6261   -4.3985 C   0  0  0  0  0  0  0  0  0  0  0  0
   14.7082   69.7014   -3.8277 H   0  0  0  0  0  0  0  0  0  0  0  0
   23.5674   72.8620   -3.2002 O   0  0  0  0  0  0  0  0  0  0  0  0
   23.7551   71.4355   -2.4633 P   0  0  2  0  0  0  0  0  0  0  0  0
   25.2734   71.0211   -2.8382 O   0  0  0  0  0  0  0  0  0  0  0  0
   22.7234   70.4103   -2.8353 O   0  0  0  0  0  0  0  0  0  0  0  0
   23.8066   71.7922   -0.8900 O   0  0  0  0  0  0  0  0  0  0  0  0
   24.8710   70.8391    1.0008 O   0  0  0  0  0  0  0  0  0  0  0  0
   21.1437   71.5489    2.6299 O   0  0  0  0  0  0  0  0  0  0  0  0
   23.3689   73.1866    3.4137 O   0  0  0  0  0  0  0  0  0  0  0  0
   21.3730   70.6347   -0.1071 O   0  0  0  0  0  0  0  0  0  0  0  0
   22.2710   71.8146    1.7910 C   0  0  1  0  0  0  0  0  0  0  0  0
   23.5051   71.9718    2.6816 C   0  0  1  0  0  0  0  0  0  0  0  0
   22.4546   70.6512    0.8183 C   0  0  2  0  0  0  0  0  0  0  0  0
   24.7922   71.9929    1.8460 C   0  0  1  0  0  0  0  0  0  0  0  0
   23.7879   70.7424    0.0738 C   0  0  1  0  0  0  0  0  0  0  0  0
   21.0213   72.2841    3.2497 H   0  0  0  0  0  0  0  0  0  0  0  0
   22.5522   73.1605    3.9366 H   0  0  0  0  0  0  0  0  0  0  0  0
   20.5348   70.5764    0.3765 H   0  0  0  0  0  0  0  0  0  0  0  0
   27.1296   71.5091    1.9528 O   0  0  0  0  0  0  0  0  0  0  0  0
   26.0429   71.9903    2.7222 C   0  0  0  0  0  0  0  0  0  0  0  0
   27.9327   71.5022    2.4976 H   0  0  0  0  0  0  0  0  0  0  0  0
 25 28  1  0
 25 24  1  0
 25 26  1  6
 25 27  2  0
  1  4  1  0
  1 24  1  0
  1  2  1  6
  1  3  2  0
  6 11  1  0
  6 12  1  0
 29 36  1  0
 29 37  1  0
  9  7  1  1
  7 13  1  0
 10  8  1  6
  8 14  1  0
 37 28  1  6
  4  5  1  0
 33 30  1  1
 30 38  1  0
 34 31  1  6
 31 39  1  0
 35 32  1  6
 32 40  1  0
 41 42  1  0
 41 43  1  0
 15 19  2  0
 16 22  2  0
 12 17  1  1
 17 19  1  0
 17 20  1  0
 18 19  1  0
 18 22  1  0
 18 23  1  0
  9 10  1  0
  9 11  1  0
 10 12  1  0
 11  5  1  6
 33 34  1  0
 33 35  1  0
 34 36  1  0
 35 37  1  0
 36 42  1  1
 20 21  2  0
 21 22  1  0
M  CHG  2   2  -1  26  -1
M  END
>  <COMPND>  (19) 
    8629 

>  <AUTHOR>  (19) 
    GENERATED BY OPEN BABEL 3.1.1

>  <MASTER>  (19) 
        0    0    0    0    0    0    0    0   58    0   58    0

>  <minimizedAffinity>  (19) 
-8.05299

>  <CNNscore>  (19) 
0.3990156651

>  <CNNaffinity>  (19) 
4.2948365211

>  <CNN_VS>  (19) 
1.7137070894

>  <CNNaffinity_variance>  (19) 
0.1229061708

$$$$
20
     RDKit          3D

 43 45  0  0  0  0  0  0  0  0999 V2000
   21.2112   73.2890   -3.1146 P   0  0  2  0  0  0  0  0  0  0  0  0
   22.3091   72.5623   -4.0547 O   0  0  0  0  0  0  0  0  0  0  0  0
   21.0845   74.7704   -3.3170 O   0  0  0  0  0  0  0  0  0  0  0  0
   21.6061   72.8154   -1.6188 O   0  0  0  0  0  0  0  0  0  0  0  0
   22.5821   73.5588   -0.9098 C   0  0  0  0  0  0  0  0  0  0  0  0
   24.8248   73.3855   -0.0648 O   0  0  0  0  0  0  0  0  0  0  0  0
   25.0219   70.8416   -1.6397 O   0  0  0  0  0  0  0  0  0  0  0  0
   24.5774   69.9386    0.8948 O   0  0  0  0  0  0  0  0  0  0  0  0
   23.9038   71.3850   -0.9398 C   0  0  1  0  0  0  0  0  0  0  0  0
   24.0879   71.2198    0.5543 C   0  0  2  0  0  0  0  0  0  0  0  0
   23.9415   72.8998   -1.0993 C   0  0  1  0  0  0  0  0  0  0  0  0
   25.0771   72.3276    0.8744 C   0  0  2  0  0  0  0  0  0  0  0  0
   25.0190   69.8750   -1.5525 H   0  0  0  0  0  0  0  0  0  0  0  0
   23.9123   69.2686    0.6722 H   0  0  0  0  0  0  0  0  0  0  0  0
   27.0645   72.2157    2.8783 O   0  0  0  0  0  0  0  0  0  0  0  0
   24.3453   74.3170    5.9494 O   0  0  0  0  0  0  0  0  0  0  0  0
   24.9155   72.8382    2.2065 N   0  0  0  0  0  0  0  0  0  0  0  0
   25.7090   73.2622    4.4058 N   0  0  0  0  0  0  0  0  0  0  0  0
   25.9751   72.7312    3.1372 C   0  0  0  0  0  0  0  0  0  0  0  0
   23.7168   73.4373    2.5783 C   0  0  0  0  0  0  0  0  0  0  0  0
   23.4785   73.9375    3.7925 C   0  0  0  0  0  0  0  0  0  0  0  0
   24.5337   73.8661    4.8238 C   0  0  0  0  0  0  0  0  0  0  0  0
   26.4325   73.1987    5.0708 H   0  0  0  0  0  0  0  0  0  0  0  0
   19.8623   72.4511   -3.4168 O   0  0  0  0  0  0  0  0  0  0  0  0
   19.3950   70.9812   -2.9331 P   0  0  2  0  0  0  0  0  0  0  0  0
   18.5025   71.2892   -1.6192 O   0  0  0  0  0  0  0  0  0  0  0  0
   20.5257   70.0209   -2.7024 O   0  0  0  0  0  0  0  0  0  0  0  0
   18.3290   70.5042   -4.0472 O   0  0  0  0  0  0  0  0  0  0  0  0
   16.7657   72.2589   -4.3533 O   0  0  0  0  0  0  0  0  0  0  0  0
   15.0780   69.4297   -6.8430 O   0  0  0  0  0  0  0  0  0  0  0  0
   16.3983   71.7126   -7.9804 O   0  0  0  0  0  0  0  0  0  0  0  0
   16.2718   68.6173   -4.3341 O   0  0  0  0  0  0  0  0  0  0  0  0
   16.1485   70.1305   -6.2040 C   0  0  1  0  0  0  0  0  0  0  0  0
   16.0602   71.6056   -6.6003 C   0  0  1  0  0  0  0  0  0  0  0  0
   16.0160   69.9716   -4.6905 C   0  0  2  0  0  0  0  0  0  0  0  0
   17.0056   72.4652   -5.7504 C   0  0  1  0  0  0  0  0  0  0  0  0
   16.9659   70.9060   -3.9391 C   0  0  1  0  0  0  0  0  0  0  0  0
   15.1566   69.5263   -7.8043 H   0  0  0  0  0  0  0  0  0  0  0  0
   15.7942   71.1648   -8.5059 H   0  0  0  0  0  0  0  0  0  0  0  0
   15.6639   68.0359   -4.8161 H   0  0  0  0  0  0  0  0  0  0  0  0
   17.3543   74.2533   -7.2963 O   0  0  0  0  0  0  0  0  0  0  0  0
   16.8196   73.9568   -6.0194 C   0  0  0  0  0  0  0  0  0  0  0  0
   17.2426   75.1993   -7.4813 H   0  0  0  0  0  0  0  0  0  0  0  0
 25 28  1  0
 25 24  1  0
 25 26  1  1
 25 27  2  0
  1  4  1  0
  1 24  1  0
  1  2  1  6
  1  3  2  0
  6 11  1  0
  6 12  1  0
 29 36  1  0
 29 37  1  0
  9  7  1  6
  7 13  1  0
 10  8  1  6
  8 14  1  0
 37 28  1  6
  4  5  1  0
 33 30  1  6
 30 38  1  0
 34 31  1  6
 31 39  1  0
 35 32  1  6
 32 40  1  0
 41 42  1  0
 41 43  1  0
 15 19  2  0
 16 22  2  0
 12 17  1  1
 17 19  1  0
 17 20  1  0
 18 19  1  0
 18 22  1  0
 18 23  1  0
  9 10  1  0
  9 11  1  0
 10 12  1  0
 11  5  1  1
 33 34  1  0
 33 35  1  0
 34 36  1  0
 35 37  1  0
 36 42  1  6
 20 21  2  0
 21 22  1  0
M  CHG  2   2  -1  26  -1
M  END
>  <COMPND>  (20) 
    8629 

>  <AUTHOR>  (20) 
    GENERATED BY OPEN BABEL 3.1.1

>  <MASTER>  (20) 
        0    0    0    0    0    0    0    0   58    0   58    0

>  <minimizedAffinity>  (20) 
-6.36548

>  <CNNscore>  (20) 
0.3932156265

>  <CNNaffinity>  (20) 
4.1497640610

>  <CNN_VS>  (20) 
1.6317521334

>  <CNNaffinity_variance>  (20) 
0.2216793597

$$$$
21
     RDKit          3D

 43 45  0  0  0  0  0  0  0  0999 V2000
   23.5780   71.4955   -2.5857 P   0  0  2  0  0  0  0  0  0  0  0  0
   23.3087   73.0008   -2.0574 O   0  0  0  0  0  0  0  0  0  0  0  0
   25.0245   71.1146   -2.7037 O   0  0  0  0  0  0  0  0  0  0  0  0
   22.7133   71.4022   -3.9500 O   0  0  0  0  0  0  0  0  0  0  0  0
   22.4231   72.5996   -4.6499 C   0  0  0  0  0  0  0  0  0  0  0  0
   21.0519   71.0086   -5.8170 O   0  0  0  0  0  0  0  0  0  0  0  0
   20.6026   73.1676   -7.8486 O   0  0  0  0  0  0  0  0  0  0  0  0
   18.3077   73.2488   -6.3776 O   0  0  0  0  0  0  0  0  0  0  0  0
   20.7383   73.2754   -6.4325 C   0  0  1  0  0  0  0  0  0  0  0  0
   19.4821   72.7827   -5.7449 C   0  0  2  0  0  0  0  0  0  0  0  0
   21.7711   72.2504   -5.9807 C   0  0  1  0  0  0  0  0  0  0  0  0
   19.6400   71.2748   -5.8430 C   0  0  2  0  0  0  0  0  0  0  0  0
   19.9482   73.8130   -8.1606 H   0  0  0  0  0  0  0  0  0  0  0  0
   18.2528   74.2130   -6.2878 H   0  0  0  0  0  0  0  0  0  0  0  0
   17.3379   69.6558   -6.0818 O   0  0  0  0  0  0  0  0  0  0  0  0
   17.3305   68.6838   -1.5766 O   0  0  0  0  0  0  0  0  0  0  0  0
   19.0154   70.5864   -4.7487 N   0  0  0  0  0  0  0  0  0  0  0  0
   17.3362   69.1730   -3.8384 N   0  0  0  0  0  0  0  0  0  0  0  0
   17.8622   69.7996   -4.9754 C   0  0  0  0  0  0  0  0  0  0  0  0
   19.5466   70.6949   -3.4681 C   0  0  0  0  0  0  0  0  0  0  0  0
   19.0323   70.0920   -2.3942 C   0  0  0  0  0  0  0  0  0  0  0  0
   17.8272   69.2512   -2.5447 C   0  0  0  0  0  0  0  0  0  0  0  0
   16.5325   68.6199   -3.9721 H   0  0  0  0  0  0  0  0  0  0  0  0
   22.7260   70.5900   -1.5528 O   0  0  0  0  0  0  0  0  0  0  0  0
   22.8280   70.4301    0.0525 P   0  0  2  0  0  0  0  0  0  0  0  0
   24.3322   69.8777    0.2755 O   0  0  0  0  0  0  0  0  0  0  0  0
   21.7562   69.5682    0.6545 O   0  0  0  0  0  0  0  0  0  0  0  0
   22.8623   71.9435    0.6124 O   0  0  0  0  0  0  0  0  0  0  0  0
   22.1160   72.1084    2.8557 O   0  0  0  0  0  0  0  0  0  0  0  0
   22.2005   76.1227    1.8917 O   0  0  0  0  0  0  0  0  0  0  0  0
   24.1950   75.0456    3.6552 O   0  0  0  0  0  0  0  0  0  0  0  0
   21.3177   74.1851   -0.0694 O   0  0  0  0  0  0  0  0  0  0  0  0
   22.6459   74.7641    1.8547 C   0  0  1  0  0  0  0  0  0  0  0  0
   23.0151   74.3415    3.2780 C   0  0  1  0  0  0  0  0  0  0  0  0
   21.5228   73.8854    1.3071 C   0  0  2  0  0  0  0  0  0  0  0  0
   23.2462   72.8268    3.3638 C   0  0  1  0  0  0  0  0  0  0  0  0
   21.8315   72.3978    1.4856 C   0  0  1  0  0  0  0  0  0  0  0  0
   22.9092   76.6860    2.2380 H   0  0  0  0  0  0  0  0  0  0  0  0
   24.0358   76.0008    3.5963 H   0  0  0  0  0  0  0  0  0  0  0  0
   21.1229   75.1295   -0.1690 H   0  0  0  0  0  0  0  0  0  0  0  0
   22.9906   73.3715    5.6761 O   0  0  0  0  0  0  0  0  0  0  0  0
   23.4606   72.3615    4.8024 C   0  0  0  0  0  0  0  0  0  0  0  0
   23.1203   73.0890    6.5954 H   0  0  0  0  0  0  0  0  0  0  0  0
 25 28  1  0
 25 24  1  0
 25 26  1  6
 25 27  2  0
  1  4  1  0
  1 24  1  0
  1  2  1  1
  1  3  2  0
  6 11  1  0
  6 12  1  0
 29 36  1  0
 29 37  1  0
  9  7  1  6
  7 13  1  0
 10  8  1  6
  8 14  1  0
 37 28  1  6
  4  5  1  0
 33 30  1  1
 30 38  1  0
 34 31  1  6
 31 39  1  0
 35 32  1  6
 32 40  1  0
 41 42  1  0
 41 43  1  0
 15 19  2  0
 16 22  2  0
 12 17  1  1
 17 19  1  0
 17 20  1  0
 18 19  1  0
 18 22  1  0
 18 23  1  0
  9 10  1  0
  9 11  1  0
 10 12  1  0
 11  5  1  1
 33 34  1  0
 33 35  1  0
 34 36  1  0
 35 37  1  0
 36 42  1  1
 20 21  2  0
 21 22  1  0
M  CHG  2   2  -1  26  -1
M  END
>  <COMPND>  (21) 
    8629 

>  <AUTHOR>  (21) 
    GENERATED BY OPEN BABEL 3.1.1

>  <MASTER>  (21) 
        0    0    0    0    0    0    0    0   58    0   58    0

>  <minimizedAffinity>  (21) 
-7.20668

>  <CNNscore>  (21) 
0.7025530934

>  <CNNaffinity>  (21) 
4.2750525475

>  <CNN_VS>  (21) 
3.0034513474

>  <CNNaffinity_variance>  (21) 
0.3358199298

$$$$
22
     RDKit          3D

 43 45  0  0  0  0  0  0  0  0999 V2000
   24.1740   73.5663   -3.9715 P   0  0  2  0  0  0  0  0  0  0  0  0
   23.2971   74.9121   -4.1646 O   0  0  0  0  0  0  0  0  0  0  0  0
   25.6293   73.7938   -3.6855 O   0  0  0  0  0  0  0  0  0  0  0  0
   23.8458   72.6955   -5.2951 O   0  0  0  0  0  0  0  0  0  0  0  0
   22.5367   72.1779   -5.4563 C   0  0  0  0  0  0  0  0  0  0  0  0
   21.1747   71.4591   -7.3008 O   0  0  0  0  0  0  0  0  0  0  0  0
   21.2189   74.3177   -8.2046 O   0  0  0  0  0  0  0  0  0  0  0  0
   18.7715   74.1065   -7.0205 O   0  0  0  0  0  0  0  0  0  0  0  0
   21.1781   73.7910   -6.8794 C   0  0  1  0  0  0  0  0  0  0  0  0
   19.7989   73.2460   -6.5724 C   0  0  2  0  0  0  0  0  0  0  0  0
   22.0324   72.5299   -6.8492 C   0  0  1  0  0  0  0  0  0  0  0  0
   19.8132   71.9184   -7.3109 C   0  0  2  0  0  0  0  0  0  0  0  0
   20.6805   75.1241   -8.2486 H   0  0  0  0  0  0  0  0  0  0  0  0
   18.8041   74.9370   -6.5207 H   0  0  0  0  0  0  0  0  0  0  0  0
   18.1892   70.0726   -8.7014 O   0  0  0  0  0  0  0  0  0  0  0  0
   16.6706   68.1783   -4.7838 O   0  0  0  0  0  0  0  0  0  0  0  0
   18.9834   70.9314   -6.6794 N   0  0  0  0  0  0  0  0  0  0  0  0
   17.4345   69.1308   -6.7496 N   0  0  0  0  0  0  0  0  0  0  0  0
   18.2055   70.0528   -7.4689 C   0  0  0  0  0  0  0  0  0  0  0  0
   18.9470   70.8416   -5.2921 C   0  0  0  0  0  0  0  0  0  0  0  0
   18.2055   69.9575   -4.6214 C   0  0  0  0  0  0  0  0  0  0  0  0
   17.3636   69.0032   -5.3714 C   0  0  0  0  0  0  0  0  0  0  0  0
   16.8841   68.5087   -7.2787 H   0  0  0  0  0  0  0  0  0  0  0  0
   23.3756   72.7759   -2.8093 O   0  0  0  0  0  0  0  0  0  0  0  0
   23.7116   71.3932   -2.0424 P   0  0  2  0  0  0  0  0  0  0  0  0
   25.1365   70.9564   -2.6721 O   0  0  0  0  0  0  0  0  0  0  0  0
   22.6382   70.3497   -2.1563 O   0  0  0  0  0  0  0  0  0  0  0  0
   24.0539   71.8381   -0.5291 O   0  0  0  0  0  0  0  0  0  0  0  0
   25.4437   70.9305    1.1625 O   0  0  0  0  0  0  0  0  0  0  0  0
   22.1752   71.9506    3.4706 O   0  0  0  0  0  0  0  0  0  0  0  0
   24.5888   73.4942    3.6695 O   0  0  0  0  0  0  0  0  0  0  0  0
   21.7858   70.8729    0.8123 O   0  0  0  0  0  0  0  0  0  0  0  0
   23.1139   72.1015    2.4022 C   0  0  1  0  0  0  0  0  0  0  0  0
   24.5125   72.2345    3.0080 C   0  0  1  0  0  0  0  0  0  0  0  0
   23.0362   70.8768    1.4927 C   0  0  2  0  0  0  0  0  0  0  0  0
   25.5967   72.1323    1.9267 C   0  0  1  0  0  0  0  0  0  0  0  0
   24.1877   70.8468    0.4861 C   0  0  1  0  0  0  0  0  0  0  0  0
   22.2191   72.7252    4.0516 H   0  0  0  0  0  0  0  0  0  0  0  0
   23.8987   73.5461    4.3494 H   0  0  0  0  0  0  0  0  0  0  0  0
   21.0651   70.8917    1.4604 H   0  0  0  0  0  0  0  0  0  0  0  0
   27.3967   73.4344    2.8061 O   0  0  0  0  0  0  0  0  0  0  0  0
   27.0011   72.1043    2.5257 C   0  0  0  0  0  0  0  0  0  0  0  0
   28.2887   73.4320    3.1882 H   0  0  0  0  0  0  0  0  0  0  0  0
 25 28  1  0
 25 24  1  0
 25 26  1  6
 25 27  2  0
  1  4  1  0
  1 24  1  0
  1  2  1  6
  1  3  2  0
  6 11  1  0
  6 12  1  0
 29 36  1  0
 29 37  1  0
  9  7  1  6
  7 13  1  0
 10  8  1  6
  8 14  1  0
 37 28  1  6
  4  5  1  0
 33 30  1  1
 30 38  1  0
 34 31  1  6
 31 39  1  0
 35 32  1  6
 32 40  1  0
 41 42  1  0
 41 43  1  0
 15 19  2  0
 16 22  2  0
 12 17  1  1
 17 19  1  0
 17 20  1  0
 18 19  1  0
 18 22  1  0
 18 23  1  0
  9 10  1  0
  9 11  1  0
 10 12  1  0
 11  5  1  1
 33 34  1  0
 33 35  1  0
 34 36  1  0
 35 37  1  0
 36 42  1  1
 20 21  2  0
 21 22  1  0
M  CHG  2   2  -1  26  -1
M  END
>  <COMPND>  (22) 
    8629 

>  <AUTHOR>  (22) 
    GENERATED BY OPEN BABEL 3.1.1

>  <MASTER>  (22) 
        0    0    0    0    0    0    0    0   58    0   58    0

>  <minimizedAffinity>  (22) 
-7.78699

>  <CNNscore>  (22) 
0.6753740907

>  <CNNaffinity>  (22) 
4.4084281921

>  <CNN_VS>  (22) 
2.9773380756

>  <CNNaffinity_variance>  (22) 
0.1442325413

$$$$
23
     RDKit          3D

 43 45  0  0  0  0  0  0  0  0999 V2000
   21.0256   72.4259    0.0232 P   0  0  2  0  0  0  0  0  0  0  0  0
   20.8688   71.8460    1.5254 O   0  0  0  0  0  0  0  0  0  0  0  0
   20.3363   73.7352   -0.2258 O   0  0  0  0  0  0  0  0  0  0  0  0
   20.5589   71.1959   -0.9187 O   0  0  0  0  0  0  0  0  0  0  0  0
   20.2111   71.4693   -2.2648 C   0  0  0  0  0  0  0  0  0  0  0  0
   21.1819   70.4819   -4.2286 O   0  0  0  0  0  0  0  0  0  0  0  0
   23.2504   72.6466   -4.0664 O   0  0  0  0  0  0  0  0  0  0  0  0
   21.5802   73.5653   -6.0166 O   0  0  0  0  0  0  0  0  0  0  0  0
   21.8582   72.7042   -3.7599 C   0  0  1  0  0  0  0  0  0  0  0  0
   21.0390   72.7063   -5.0337 C   0  0  2  0  0  0  0  0  0  0  0  0
   21.4613   71.3755   -3.1287 C   0  0  1  0  0  0  0  0  0  0  0  0
   21.0895   71.2442   -5.4432 C   0  0  2  0  0  0  0  0  0  0  0  0
   23.5273   73.4845   -4.4704 H   0  0  0  0  0  0  0  0  0  0  0  0
   21.5252   74.4837   -5.7094 H   0  0  0  0  0  0  0  0  0  0  0  0
   20.7569   71.5044   -8.2360 O   0  0  0  0  0  0  0  0  0  0  0  0
   16.5423   69.6448   -8.0918 O   0  0  0  0  0  0  0  0  0  0  0  0
   19.9155   70.8359   -6.1618 N   0  0  0  0  0  0  0  0  0  0  0  0
   18.6587   70.5781   -8.1619 N   0  0  0  0  0  0  0  0  0  0  0  0
   19.8488   71.0114   -7.5637 C   0  0  0  0  0  0  0  0  0  0  0  0
   18.8464   70.2682   -5.4772 C   0  0  0  0  0  0  0  0  0  0  0  0
   17.7179   69.8614   -6.0623 C   0  0  0  0  0  0  0  0  0  0  0  0
   17.5676   70.0091   -7.5244 C   0  0  0  0  0  0  0  0  0  0  0  0
   18.5895   70.6907   -9.1378 H   0  0  0  0  0  0  0  0  0  0  0  0
   22.6278   72.4582   -0.1886 O   0  0  0  0  0  0  0  0  0  0  0  0
   23.7494   71.3129    0.0197 P   0  0  2  0  0  0  0  0  0  0  0  0
   24.4576   71.2188   -1.4318 O   0  0  0  0  0  0  0  0  0  0  0  0
   23.2095   70.0087    0.5311 O   0  0  0  0  0  0  0  0  0  0  0  0
   24.8594   71.9965    0.9713 O   0  0  0  0  0  0  0  0  0  0  0  0
   26.2275   71.2316    2.7489 O   0  0  0  0  0  0  0  0  0  0  0  0
   25.0009   74.8296    4.3615 O   0  0  0  0  0  0  0  0  0  0  0  0
   27.7058   74.5366    3.4418 O   0  0  0  0  0  0  0  0  0  0  0  0
   23.1451   73.2315    2.8183 O   0  0  0  0  0  0  0  0  0  0  0  0
   25.3938   73.9371    3.3153 C   0  0  1  0  0  0  0  0  0  0  0  0
   26.8102   73.4419    3.6141 C   0  0  1  0  0  0  0  0  0  0  0  0
   24.4143   72.7660    3.2642 C   0  0  2  0  0  0  0  0  0  0  0  0
   27.1988   72.2825    2.6868 C   0  0  1  0  0  0  0  0  0  0  0  0
   24.9192   71.6469    2.3517 C   0  0  1  0  0  0  0  0  0  0  0  0
   25.6185   75.5758    4.3990 H   0  0  0  0  0  0  0  0  0  0  0  0
   27.4491   75.2621    4.0326 H   0  0  0  0  0  0  0  0  0  0  0  0
   22.8364   73.9394    3.4042 H   0  0  0  0  0  0  0  0  0  0  0  0
   28.8140   71.9886    4.4229 O   0  0  0  0  0  0  0  0  0  0  0  0
   28.5441   71.6698    3.0702 C   0  0  0  0  0  0  0  0  0  0  0  0
   29.6671   71.6048    4.6809 H   0  0  0  0  0  0  0  0  0  0  0  0
 25 28  1  0
 25 24  1  0
 25 26  1  6
 25 27  2  0
  1  4  1  0
  1 24  1  0
  1  2  1  1
  1  3  2  0
  6 11  1  0
  6 12  1  0
 29 36  1  0
 29 37  1  0
  9  7  1  6
  7 13  1  0
 10  8  1  6
  8 14  1  0
 37 28  1  6
  4  5  1  0
 33 30  1  1
 30 38  1  0
 34 31  1  6
 31 39  1  0
 35 32  1  6
 32 40  1  0
 41 42  1  0
 41 43  1  0
 15 19  2  0
 16 22  2  0
 12 17  1  1
 17 19  1  0
 17 20  1  0
 18 19  1  0
 18 22  1  0
 18 23  1  0
  9 10  1  0
  9 11  1  0
 10 12  1  0
 11  5  1  1
 33 34  1  0
 33 35  1  0
 34 36  1  0
 35 37  1  0
 36 42  1  1
 20 21  2  0
 21 22  1  0
M  CHG  2   2  -1  26  -1
M  END
>  <COMPND>  (23) 
    8629 

>  <AUTHOR>  (23) 
    GENERATED BY OPEN BABEL 3.1.1

>  <MASTER>  (23) 
        0    0    0    0    0    0    0    0   58    0   58    0

>  <minimizedAffinity>  (23) 
-6.23863

>  <CNNscore>  (23) 
0.5513852835

>  <CNNaffinity>  (23) 
4.3421630859

>  <CNN_VS>  (23) 
2.3942048550

>  <CNNaffinity_variance>  (23) 
0.0246238355

$$$$
24
     RDKit          3D

 43 45  0  0  0  0  0  0  0  0999 V2000
   20.7405   70.7493   -1.2566 P   0  0  2  0  0  0  0  0  0  0  0  0
   20.1410   72.1954   -0.8481 O   0  0  0  0  0  0  0  0  0  0  0  0
   20.7298   69.7259   -0.1595 O   0  0  0  0  0  0  0  0  0  0  0  0
   22.1924   71.0935   -1.8824 O   0  0  0  0  0  0  0  0  0  0  0  0
   22.7992   72.3283   -1.5435 C   0  0  0  0  0  0  0  0  0  0  0  0
   24.6115   73.1519   -0.1977 O   0  0  0  0  0  0  0  0  0  0  0  0
   25.7161   70.3667   -0.3136 O   0  0  0  0  0  0  0  0  0  0  0  0
   24.5634   70.4467    2.1565 O   0  0  0  0  0  0  0  0  0  0  0  0
   24.3576   70.7962   -0.2407 C   0  0  1  0  0  0  0  0  0  0  0  0
   24.0369   71.2919    1.1539 C   0  0  2  0  0  0  0  0  0  0  0  0
   24.2223   72.0677   -1.0691 C   0  0  1  0  0  0  0  0  0  0  0  0
   24.6784   72.6691    1.1541 C   0  0  2  0  0  0  0  0  0  0  0  0
   25.8270   69.5556    0.2077 H   0  0  0  0  0  0  0  0  0  0  0  0
   24.1236   69.5832    2.1155 H   0  0  0  0  0  0  0  0  0  0  0  0
   25.9164   74.1504    3.2158 O   0  0  0  0  0  0  0  0  0  0  0  0
   21.9489   76.1809    4.3892 O   0  0  0  0  0  0  0  0  0  0  0  0
   23.9928   73.5925    2.0135 N   0  0  0  0  0  0  0  0  0  0  0  0
   23.9399   75.1603    3.7983 N   0  0  0  0  0  0  0  0  0  0  0  0
   24.7070   74.2852    3.0187 C   0  0  0  0  0  0  0  0  0  0  0  0
   22.6275   73.8038    1.8550 C   0  0  0  0  0  0  0  0  0  0  0  0
   21.9103   74.6409    2.6075 C   0  0  0  0  0  0  0  0  0  0  0  0
   22.5807   75.4036    3.6803 C   0  0  0  0  0  0  0  0  0  0  0  0
   24.4162   75.6536    4.5052 H   0  0  0  0  0  0  0  0  0  0  0  0
   19.8695   70.3493   -2.5583 O   0  0  0  0  0  0  0  0  0  0  0  0
   18.3182   69.9197   -2.7064 P   0  0  2  0  0  0  0  0  0  0  0  0
   17.5200   71.2201   -2.1685 O   0  0  0  0  0  0  0  0  0  0  0  0
   17.9640   68.6411   -2.0038 O   0  0  0  0  0  0  0  0  0  0  0  0
   18.0485   69.9053   -4.2977 O   0  0  0  0  0  0  0  0  0  0  0  0
   19.1572   71.1022   -6.0166 O   0  0  0  0  0  0  0  0  0  0  0  0
   15.3316   71.1075   -7.5708 O   0  0  0  0  0  0  0  0  0  0  0  0
   17.3446   69.4424   -8.7640 O   0  0  0  0  0  0  0  0  0  0  0  0
   15.7335   71.4335   -4.7227 O   0  0  0  0  0  0  0  0  0  0  0  0
   16.4463   70.5689   -6.8548 C   0  0  1  0  0  0  0  0  0  0  0  0
   17.6313   70.4681   -7.8174 C   0  0  1  0  0  0  0  0  0  0  0  0
   16.7812   71.4920   -5.6847 C   0  0  2  0  0  0  0  0  0  0  0  0
   18.9310   70.1527   -7.0649 C   0  0  1  0  0  0  0  0  0  0  0  0
   18.1168   71.1216   -5.0373 C   0  0  1  0  0  0  0  0  0  0  0  0
   15.1136   70.5257   -8.3148 H   0  0  0  0  0  0  0  0  0  0  0  0
   16.5213   69.6535   -9.2319 H   0  0  0  0  0  0  0  0  0  0  0  0
   14.8935   71.6703   -5.1448 H   0  0  0  0  0  0  0  0  0  0  0  0
   20.2444   71.5040   -8.5339 O   0  0  0  0  0  0  0  0  0  0  0  0
   20.1502   70.2032   -7.9832 C   0  0  0  0  0  0  0  0  0  0  0  0
   21.0162   71.5511   -9.1203 H   0  0  0  0  0  0  0  0  0  0  0  0
 25 28  1  0
 25 24  1  0
 25 26  1  1
 25 27  2  0
  1  4  1  0
  1 24  1  0
  1  2  1  1
  1  3  2  0
  6 11  1  0
  6 12  1  0
 29 36  1  0
 29 37  1  0
  9  7  1  1
  7 13  1  0
 10  8  1  1
  8 14  1  0
 37 28  1  6
  4  5  1  0
 33 30  1  6
 30 38  1  0
 34 31  1  6
 31 39  1  0
 35 32  1  1
 32 40  1  0
 41 42  1  0
 41 43  1  0
 15 19  2  0
 16 22  2  0
 12 17  1  1
 17 19  1  0
 17 20  1  0
 18 19  1  0
 18 22  1  0
 18 23  1  0
  9 10  1  0
  9 11  1  0
 10 12  1  0
 11  5  1  1
 33 34  1  0
 33 35  1  0
 34 36  1  0
 35 37  1  0
 36 42  1  6
 20 21  2  0
 21 22  1  0
M  CHG  2   2  -1  26  -1
M  END
>  <COMPND>  (24) 
    8629 

>  <AUTHOR>  (24) 
    GENERATED BY OPEN BABEL 3.1.1

>  <MASTER>  (24) 
        0    0    0    0    0    0    0    0   58    0   58    0

>  <minimizedAffinity>  (24) 
-7.23957

>  <CNNscore>  (24) 
0.5134434104

>  <CNNaffinity>  (24) 
4.2559790611

>  <CNN_VS>  (24) 
2.1852045059

>  <CNNaffinity_variance>  (24) 
0.1658316404

$$$$
25
     RDKit          3D

 43 45  0  0  0  0  0  0  0  0999 V2000
   19.6201   73.5807   -3.3046 P   0  0  2  0  0  0  0  0  0  0  0  0
   18.8187   74.8182   -2.6386 O   0  0  0  0  0  0  0  0  0  0  0  0
   19.0215   72.2283   -3.0515 O   0  0  0  0  0  0  0  0  0  0  0  0
   21.1416   73.7826   -2.7926 O   0  0  0  0  0  0  0  0  0  0  0  0
   21.3994   73.7276   -1.4004 C   0  0  0  0  0  0  0  0  0  0  0  0
   23.0342   72.9624    0.1857 O   0  0  0  0  0  0  0  0  0  0  0  0
   23.1685   70.4510   -1.4469 O   0  0  0  0  0  0  0  0  0  0  0  0
   21.5865   69.7139    0.6485 O   0  0  0  0  0  0  0  0  0  0  0  0
   22.0435   71.2785   -1.1555 C   0  0  1  0  0  0  0  0  0  0  0  0
   21.6004   71.0776    0.2787 C   0  0  2  0  0  0  0  0  0  0  0  0
   22.5171   72.7266   -1.1422 C   0  0  1  0  0  0  0  0  0  0  0  0
   22.6383   71.8805    1.0445 C   0  0  2  0  0  0  0  0  0  0  0  0
   22.8907   69.5211   -1.4611 H   0  0  0  0  0  0  0  0  0  0  0  0
   20.9103   69.2461    0.1340 H   0  0  0  0  0  0  0  0  0  0  0  0
   23.9586   71.7476    3.5379 O   0  0  0  0  0  0  0  0  0  0  0  0
   20.5462   73.9937    5.6712 O   0  0  0  0  0  0  0  0  0  0  0  0
   22.1179   72.4226    2.2678 N   0  0  0  0  0  0  0  0  0  0  0  0
   22.2585   72.8662    4.5981 N   0  0  0  0  0  0  0  0  0  0  0  0
   22.8598   72.3017    3.4659 C   0  0  0  0  0  0  0  0  0  0  0  0
   20.8850   73.0660    2.2716 C   0  0  0  0  0  0  0  0  0  0  0  0
   20.3248   73.5978    3.3600 C   0  0  0  0  0  0  0  0  0  0  0  0
   21.0348   73.5145    4.6527 C   0  0  0  0  0  0  0  0  0  0  0  0
   22.7570   72.7937    5.4442 H   0  0  0  0  0  0  0  0  0  0  0  0
   19.7031   73.9984   -4.8640 O   0  0  0  0  0  0  0  0  0  0  0  0
   20.3149   73.2185   -6.1408 P   0  0  2  0  0  0  0  0  0  0  0  0
   21.4130   72.2305   -5.4808 O   0  0  0  0  0  0  0  0  0  0  0  0
   20.8576   74.1208   -7.2110 O   0  0  0  0  0  0  0  0  0  0  0  0
   19.1278   72.2402   -6.6293 O   0  0  0  0  0  0  0  0  0  0  0  0
   18.4981   70.2035   -5.5939 O   0  0  0  0  0  0  0  0  0  0  0  0
   17.4469   69.3170   -9.4875 O   0  0  0  0  0  0  0  0  0  0  0  0
   15.3932   69.8161   -7.5429 O   0  0  0  0  0  0  0  0  0  0  0  0
   19.8496   70.8399   -8.9516 O   0  0  0  0  0  0  0  0  0  0  0  0
   17.6207   70.1584   -8.3442 C   0  0  1  0  0  0  0  0  0  0  0  0
   16.7614   69.6045   -7.2060 C   0  0  1  0  0  0  0  0  0  0  0  0
   19.0963   70.1656   -7.9494 C   0  0  2  0  0  0  0  0  0  0  0  0
   17.0962   70.2906   -5.8747 C   0  0  1  0  0  0  0  0  0  0  0  0
   19.3134   70.8278   -6.5876 C   0  0  1  0  0  0  0  0  0  0  0  0
   16.5121   69.3084   -9.7436 H   0  0  0  0  0  0  0  0  0  0  0  0
   15.1950   69.3783   -8.3857 H   0  0  0  0  0  0  0  0  0  0  0  0
   19.7039   70.4111   -9.8088 H   0  0  0  0  0  0  0  0  0  0  0  0
   16.0071   68.3252   -5.0624 O   0  0  0  0  0  0  0  0  0  0  0  0
   16.3649   69.6459   -4.6992 C   0  0  0  0  0  0  0  0  0  0  0  0
   15.5411   67.9023   -4.3237 H   0  0  0  0  0  0  0  0  0  0  0  0
 25 28  1  0
 25 24  1  0
 25 26  1  1
 25 27  2  0
  1  4  1  0
  1 24  1  0
  1  2  1  1
  1  3  2  0
  6 11  1  0
  6 12  1  0
 29 36  1  0
 29 37  1  0
  9  7  1  1
  7 13  1  0
 10  8  1  1
  8 14  1  0
 37 28  1  6
  4  5  1  0
 33 30  1  6
 30 38  1  0
 34 31  1  6
 31 39  1  0
 35 32  1  6
 32 40  1  0
 41 42  1  0
 41 43  1  0
 15 19  2  0
 16 22  2  0
 12 17  1  1
 17 19  1  0
 17 20  1  0
 18 19  1  0
 18 22  1  0
 18 23  1  0
  9 10  1  0
  9 11  1  0
 10 12  1  0
 11  5  1  1
 33 34  1  0
 33 35  1  0
 34 36  1  0
 35 37  1  0
 36 42  1  1
 20 21  2  0
 21 22  1  0
M  CHG  2   2  -1  26  -1
M  END
>  <COMPND>  (25) 
    8629 

>  <AUTHOR>  (25) 
    GENERATED BY OPEN BABEL 3.1.1

>  <MASTER>  (25) 
        0    0    0    0    0    0    0    0   58    0   58    0

>  <minimizedAffinity>  (25) 
-6.89790

>  <CNNscore>  (25) 
0.5064788461

>  <CNNaffinity>  (25) 
4.1167030334

>  <CNN_VS>  (25) 
2.0850229263

>  <CNNaffinity_variance>  (25) 
0.1754858792

$$$$
26
     RDKit          3D

 43 45  0  0  0  0  0  0  0  0999 V2000
   20.3162   73.9462   -3.9554 P   0  0  2  0  0  0  0  0  0  0  0  0
   19.2462   74.6494   -2.9665 O   0  0  0  0  0  0  0  0  0  0  0  0
   21.1420   74.8951   -4.7734 O   0  0  0  0  0  0  0  0  0  0  0  0
   19.4301   72.8834   -4.7940 O   0  0  0  0  0  0  0  0  0  0  0  0
   19.6939   72.7256   -6.1772 C   0  0  0  0  0  0  0  0  0  0  0  0
   19.1551   70.5067   -5.4289 O   0  0  0  0  0  0  0  0  0  0  0  0
   19.6380   69.6374   -8.2577 O   0  0  0  0  0  0  0  0  0  0  0  0
   16.9166   69.7553   -8.1285 O   0  0  0  0  0  0  0  0  0  0  0  0
   19.0594   70.8476   -7.7721 C   0  0  1  0  0  0  0  0  0  0  0  0
   17.6562   70.5921   -7.2627 C   0  0  2  0  0  0  0  0  0  0  0  0
   19.7942   71.2403   -6.4965 C   0  0  1  0  0  0  0  0  0  0  0  0
   17.9234   69.9471   -5.9134 C   0  0  2  0  0  0  0  0  0  0  0  0
   19.1852   69.3668   -9.0724 H   0  0  0  0  0  0  0  0  0  0  0  0
   16.7726   70.2101   -8.9730 H   0  0  0  0  0  0  0  0  0  0  0  0
   17.4741   68.4367   -3.5693 O   0  0  0  0  0  0  0  0  0  0  0  0
   13.8999   71.0723   -2.3364 O   0  0  0  0  0  0  0  0  0  0  0  0
   16.8826   70.2167   -4.9618 N   0  0  0  0  0  0  0  0  0  0  0  0
   15.6949   69.7504   -2.9572 N   0  0  0  0  0  0  0  0  0  0  0  0
   16.7420   69.3970   -3.8178 C   0  0  0  0  0  0  0  0  0  0  0  0
   16.0151   71.2840   -5.1674 C   0  0  0  0  0  0  0  0  0  0  0  0
   15.0208   71.6069   -4.3378 C   0  0  0  0  0  0  0  0  0  0  0  0
   14.8055   70.8009   -3.1188 C   0  0  0  0  0  0  0  0  0  0  0  0
   15.5775   69.1932   -2.1538 H   0  0  0  0  0  0  0  0  0  0  0  0
   21.1676   73.0018   -2.9573 O   0  0  0  0  0  0  0  0  0  0  0  0
   20.8354   71.5504   -2.3279 P   0  0  2  0  0  0  0  0  0  0  0  0
   21.4515   70.5242   -3.4164 O   0  0  0  0  0  0  0  0  0  0  0  0
   19.3821   71.3302   -2.0224 O   0  0  0  0  0  0  0  0  0  0  0  0
   21.8139   71.4255   -1.0505 O   0  0  0  0  0  0  0  0  0  0  0  0
   22.8986   72.9724    0.3802 O   0  0  0  0  0  0  0  0  0  0  0  0
   26.0193   70.3382   -0.2305 O   0  0  0  0  0  0  0  0  0  0  0  0
   24.6903   70.3964    2.3148 O   0  0  0  0  0  0  0  0  0  0  0  0
   24.2287   70.9858   -2.4108 O   0  0  0  0  0  0  0  0  0  0  0  0
   24.6525   70.7206   -0.0547 C   0  0  1  0  0  0  0  0  0  0  0  0
   24.5149   71.3937    1.3124 C   0  0  1  0  0  0  0  0  0  0  0  0
   24.2564   71.6850   -1.1711 C   0  0  2  0  0  0  0  0  0  0  0  0
   23.1441   72.0671    1.4628 C   0  0  1  0  0  0  0  0  0  0  0  0
   22.8993   72.3367   -0.8995 C   0  0  1  0  0  0  0  0  0  0  0  0
   26.2770   69.7254    0.4749 H   0  0  0  0  0  0  0  0  0  0  0  0
   25.5594   69.9786    2.2083 H   0  0  0  0  0  0  0  0  0  0  0  0
   25.0935   70.5780   -2.5713 H   0  0  0  0  0  0  0  0  0  0  0  0
   22.6626   72.0062    3.8023 O   0  0  0  0  0  0  0  0  0  0  0  0
   23.0435   72.8774    2.7533 C   0  0  0  0  0  0  0  0  0  0  0  0
   22.5949   72.5081    4.6301 H   0  0  0  0  0  0  0  0  0  0  0  0
 25 28  1  0
 25 24  1  0
 25 26  1  6
 25 27  2  0
  1  4  1  0
  1 24  1  0
  1  2  1  1
  1  3  2  0
  6 11  1  0
  6 12  1  0
 29 36  1  0
 29 37  1  0
  9  7  1  1
  7 13  1  0
 10  8  1  6
  8 14  1  0
 37 28  1  1
  4  5  1  0
 33 30  1  6
 30 38  1  0
 34 31  1  1
 31 39  1  0
 35 32  1  6
 32 40  1  0
 41 42  1  0
 41 43  1  0
 15 19  2  0
 16 22  2  0
 12 17  1  1
 17 19  1  0
 17 20  1  0
 18 19  1  0
 18 22  1  0
 18 23  1  0
  9 10  1  0
  9 11  1  0
 10 12  1  0
 11  5  1  1
 33 34  1  0
 33 35  1  0
 34 36  1  0
 35 37  1  0
 36 42  1  1
 20 21  2  0
 21 22  1  0
M  CHG  2   2  -1  26  -1
M  END
>  <COMPND>  (26) 
    8629 

>  <AUTHOR>  (26) 
    GENERATED BY OPEN BABEL 3.1.1

>  <MASTER>  (26) 
        0    0    0    0    0    0    0    0   58    0   58    0

>  <minimizedAffinity>  (26) 
-6.46676

>  <CNNscore>  (26) 
0.5048997402

>  <CNNaffinity>  (26) 
4.3293843269

>  <CNN_VS>  (26) 
2.1859049797

>  <CNNaffinity_variance>  (26) 
0.1812222302

$$$$
27
     RDKit          3D

 43 45  0  0  0  0  0  0  0  0999 V2000
   19.3591   71.2117   -2.0654 P   0  0  2  0  0  0  0  0  0  0  0  0
   19.3950   72.5433   -1.1474 O   0  0  0  0  0  0  0  0  0  0  0  0
   17.9854   70.7200   -2.4153 O   0  0  0  0  0  0  0  0  0  0  0  0
   20.2981   70.1638   -1.2665 O   0  0  0  0  0  0  0  0  0  0  0  0
   20.9983   70.6197   -0.1221 C   0  0  0  0  0  0  0  0  0  0  0  0
   22.9757   70.7336   -1.4826 O   0  0  0  0  0  0  0  0  0  0  0  0
   24.4926   69.9655    0.9872 O   0  0  0  0  0  0  0  0  0  0  0  0
   24.9021   72.6582    0.8515 O   0  0  0  0  0  0  0  0  0  0  0  0
   23.3395   70.7955    0.8583 C   0  0  1  0  0  0  0  0  0  0  0  0
   23.7216   72.1393    0.2737 C   0  0  2  0  0  0  0  0  0  0  0  0
   22.4600   70.2097   -0.2392 C   0  0  1  0  0  0  0  0  0  0  0  0
   23.8892   71.8060   -1.1991 C   0  0  2  0  0  0  0  0  0  0  0  0
   25.0695   70.3195    1.6828 H   0  0  0  0  0  0  0  0  0  0  0  0
   24.7446   72.8543    1.7883 H   0  0  0  0  0  0  0  0  0  0  0  0
   25.0482   72.2429   -3.7375 O   0  0  0  0  0  0  0  0  0  0  0  0
   22.6283   76.1124   -4.3795 O   0  0  0  0  0  0  0  0  0  0  0  0
   23.5800   72.9194   -2.0512 N   0  0  0  0  0  0  0  0  0  0  0  0
   23.8422   74.1692   -4.0552 N   0  0  0  0  0  0  0  0  0  0  0  0
   24.2188   73.0467   -3.3067 C   0  0  0  0  0  0  0  0  0  0  0  0
   22.6523   73.8703   -1.6398 C   0  0  0  0  0  0  0  0  0  0  0  0
   22.3052   74.9357   -2.3648 C   0  0  0  0  0  0  0  0  0  0  0  0
   22.9263   75.1427   -3.6890 C   0  0  0  0  0  0  0  0  0  0  0  0
   24.2745   74.2787   -4.9331 H   0  0  0  0  0  0  0  0  0  0  0  0
   20.2709   71.6212   -3.3357 O   0  0  0  0  0  0  0  0  0  0  0  0
   19.9913   72.6411   -4.5583 P   0  0  2  0  0  0  0  0  0  0  0  0
   21.3717   72.5973   -5.4011 O   0  0  0  0  0  0  0  0  0  0  0  0
   19.5717   74.0169   -4.1283 O   0  0  0  0  0  0  0  0  0  0  0  0
   18.9196   71.8759   -5.4916 O   0  0  0  0  0  0  0  0  0  0  0  0
   18.2582   69.6019   -5.4032 O   0  0  0  0  0  0  0  0  0  0  0  0
   17.9480   70.2215   -9.4739 O   0  0  0  0  0  0  0  0  0  0  0  0
   15.5641   69.9695   -7.8924 O   0  0  0  0  0  0  0  0  0  0  0  0
   20.1182   71.4333   -7.9901 O   0  0  0  0  0  0  0  0  0  0  0  0
   17.8682   70.5797   -8.0917 C   0  0  1  0  0  0  0  0  0  0  0  0
   16.8656   69.6455   -7.4113 C   0  0  1  0  0  0  0  0  0  0  0  0
   19.2510   70.4374   -7.4584 C   0  0  2  0  0  0  0  0  0  0  0  0
   16.9221   69.7894   -5.8845 C   0  0  1  0  0  0  0  0  0  0  0  0
   19.1882   70.5480   -5.9340 C   0  0  1  0  0  0  0  0  0  0  0  0
   17.0733   70.3102   -9.8821 H   0  0  0  0  0  0  0  0  0  0  0  0
   15.5421   69.8750   -8.8577 H   0  0  0  0  0  0  0  0  0  0  0  0
   20.1495   71.3525   -8.9557 H   0  0  0  0  0  0  0  0  0  0  0  0
   16.3713   68.7553   -3.8022 O   0  0  0  0  0  0  0  0  0  0  0  0
   16.0451   68.7568   -5.1798 C   0  0  0  0  0  0  0  0  0  0  0  0
   15.8206   68.1030   -3.3408 H   0  0  0  0  0  0  0  0  0  0  0  0
 25 28  1  0
 25 24  1  0
 25 26  1  6
 25 27  2  0
  1  4  1  0
  1 24  1  0
  1  2  1  1
  1  3  2  0
  6 11  1  0
  6 12  1  0
 29 36  1  0
 29 37  1  0
  9  7  1  6
  7 13  1  0
 10  8  1  1
  8 14  1  0
 37 28  1  6
  4  5  1  0
 33 30  1  6
 30 38  1  0
 34 31  1  6
 31 39  1  0
 35 32  1  6
 32 40  1  0
 41 42  1  0
 41 43  1  0
 15 19  2  0
 16 22  2  0
 12 17  1  6
 17 19  1  0
 17 20  1  0
 18 19  1  0
 18 22  1  0
 18 23  1  0
  9 10  1  0
  9 11  1  0
 10 12  1  0
 11  5  1  1
 33 34  1  0
 33 35  1  0
 34 36  1  0
 35 37  1  0
 36 42  1  1
 20 21  2  0
 21 22  1  0
M  CHG  2   2  -1  26  -1
M  END
>  <COMPND>  (27) 
    8629 

>  <AUTHOR>  (27) 
    GENERATED BY OPEN BABEL 3.1.1

>  <MASTER>  (27) 
        0    0    0    0    0    0    0    0   58    0   58    0

>  <minimizedAffinity>  (27) 
-7.47578

>  <CNNscore>  (27) 
0.4642630219

>  <CNNaffinity>  (27) 
4.1526107788

>  <CNN_VS>  (27) 
1.9279036522

>  <CNNaffinity_variance>  (27) 
0.5468551517

$$$$
28
     RDKit          3D

 43 45  0  0  0  0  0  0  0  0999 V2000
   24.0173   72.1451   -3.1426 P   0  0  2  0  0  0  0  0  0  0  0  0
   25.1256   70.9730   -3.0195 O   0  0  0  0  0  0  0  0  0  0  0  0
   24.4311   73.3239   -3.9738 O   0  0  0  0  0  0  0  0  0  0  0  0
   23.6246   72.4712   -1.6073 O   0  0  0  0  0  0  0  0  0  0  0  0
   24.5729   72.1903   -0.5926 C   0  0  0  0  0  0  0  0  0  0  0  0
   24.8281   70.9881    1.4722 O   0  0  0  0  0  0  0  0  0  0  0  0
   22.1170   69.8332    0.9178 O   0  0  0  0  0  0  0  0  0  0  0  0
   21.5711   71.7792    2.7485 O   0  0  0  0  0  0  0  0  0  0  0  0
   22.6125   71.1431    0.6457 C   0  0  1  0  0  0  0  0  0  0  0  0
   22.7083   71.9456    1.9264 C   0  0  2  0  0  0  0  0  0  0  0  0
   24.0755   71.0163    0.2396 C   0  0  1  0  0  0  0  0  0  0  0  0
   23.9720   71.3846    2.5561 C   0  0  2  0  0  0  0  0  0  0  0  0
   21.1839   69.8885    1.1790 H   0  0  0  0  0  0  0  0  0  0  0  0
   20.7935   72.1518    2.3044 H   0  0  0  0  0  0  0  0  0  0  0  0
   23.2150   72.1015    5.1812 O   0  0  0  0  0  0  0  0  0  0  0  0
   26.6809   75.1164    5.5535 O   0  0  0  0  0  0  0  0  0  0  0  0
   24.6590   72.3539    3.3623 N   0  0  0  0  0  0  0  0  0  0  0  0
   24.9415   73.6020    5.3645 N   0  0  0  0  0  0  0  0  0  0  0  0
   24.1968   72.6419    4.6676 C   0  0  0  0  0  0  0  0  0  0  0  0
   25.7780   73.0072    2.8574 C   0  0  0  0  0  0  0  0  0  0  0  0
   26.4763   73.9212    3.5343 C   0  0  0  0  0  0  0  0  0  0  0  0
   26.0597   74.2798    4.9054 C   0  0  0  0  0  0  0  0  0  0  0  0
   24.6378   73.8190    6.2758 H   0  0  0  0  0  0  0  0  0  0  0  0
   22.7160   71.3587   -3.6913 O   0  0  0  0  0  0  0  0  0  0  0  0
   21.3187   71.9072   -4.2911 P   0  0  2  0  0  0  0  0  0  0  0  0
   21.4115   71.5218   -5.8597 O   0  0  0  0  0  0  0  0  0  0  0  0
   21.0640   73.3627   -4.0251 O   0  0  0  0  0  0  0  0  0  0  0  0
   20.1983   70.9118   -3.6923 O   0  0  0  0  0  0  0  0  0  0  0  0
   18.0610   71.9331   -3.6180 O   0  0  0  0  0  0  0  0  0  0  0  0
   17.2391   68.5237   -1.4384 O   0  0  0  0  0  0  0  0  0  0  0  0
   16.2012   68.7876   -4.1031 O   0  0  0  0  0  0  0  0  0  0  0  0
   19.7879   69.8593   -1.1235 O   0  0  0  0  0  0  0  0  0  0  0  0
   17.8701   69.2926   -2.4659 C   0  0  1  0  0  0  0  0  0  0  0  0
   16.7801   69.8660   -3.3736 C   0  0  1  0  0  0  0  0  0  0  0  0
   18.6799   70.4166   -1.8223 C   0  0  2  0  0  0  0  0  0  0  0  0
   17.3551   70.9142   -4.3358 C   0  0  1  0  0  0  0  0  0  0  0  0
   19.1636   71.4304   -2.8607 C   0  0  1  0  0  0  0  0  0  0  0  0
   16.7236   67.8080   -1.8403 H   0  0  0  0  0  0  0  0  0  0  0  0
   15.8423   68.1326   -3.4839 H   0  0  0  0  0  0  0  0  0  0  0  0
   19.4686   69.2194   -0.4689 H   0  0  0  0  0  0  0  0  0  0  0  0
   16.6328   72.9660   -5.3243 O   0  0  0  0  0  0  0  0  0  0  0  0
   16.2614   71.6122   -5.1412 C   0  0  0  0  0  0  0  0  0  0  0  0
   15.9460   73.4227   -5.8357 H   0  0  0  0  0  0  0  0  0  0  0  0
 25 28  1  0
 25 24  1  0
 25 26  1  6
 25 27  2  0
  1  4  1  0
  1 24  1  0
  1  2  1  1
  1  3  2  0
  6 11  1  0
  6 12  1  0
 29 36  1  0
 29 37  1  0
  9  7  1  1
  7 13  1  0
 10  8  1  1
  8 14  1  0
 37 28  1  6
  4  5  1  0
 33 30  1  1
 30 38  1  0
 34 31  1  6
 31 39  1  0
 35 32  1  6
 32 40  1  0
 41 42  1  0
 41 43  1  0
 15 19  2  0
 16 22  2  0
 12 17  1  6
 17 19  1  0
 17 20  1  0
 18 19  1  0
 18 22  1  0
 18 23  1  0
  9 10  1  0
  9 11  1  0
 10 12  1  0
 11  5  1  6
 33 34  1  0
 33 35  1  0
 34 36  1  0
 35 37  1  0
 36 42  1  1
 20 21  2  0
 21 22  1  0
M  CHG  2   2  -1  26  -1
M  END
>  <COMPND>  (28) 
    8629 

>  <AUTHOR>  (28) 
    GENERATED BY OPEN BABEL 3.1.1

>  <MASTER>  (28) 
        0    0    0    0    0    0    0    0   58    0   58    0

>  <minimizedAffinity>  (28) 
-7.70374

>  <CNNscore>  (28) 
0.4209908545

>  <CNNaffinity>  (28) 
4.1064577103

>  <CNN_VS>  (28) 
1.7287811041

>  <CNNaffinity_variance>  (28) 
0.3100279570

$$$$
29
     RDKit          3D

 43 45  0  0  0  0  0  0  0  0999 V2000
   20.5018   73.3758   -2.3756 P   0  0  2  0  0  0  0  0  0  0  0  0
   19.7217   74.7686   -2.6382 O   0  0  0  0  0  0  0  0  0  0  0  0
   19.7823   72.4041   -1.4871 O   0  0  0  0  0  0  0  0  0  0  0  0
   21.9662   73.8406   -1.8681 O   0  0  0  0  0  0  0  0  0  0  0  0
   22.4332   73.3596   -0.6197 C   0  0  0  0  0  0  0  0  0  0  0  0
   24.6411   73.2155    0.3175 O   0  0  0  0  0  0  0  0  0  0  0  0
   25.0442   70.8455   -1.4745 O   0  0  0  0  0  0  0  0  0  0  0  0
   24.5330   69.6851    0.9397 O   0  0  0  0  0  0  0  0  0  0  0  0
   23.8682   71.2651   -0.7845 C   0  0  1  0  0  0  0  0  0  0  0  0
   23.9924   70.9676    0.6953 C   0  0  2  0  0  0  0  0  0  0  0  0
   23.8328   72.7882   -0.8008 C   0  0  1  0  0  0  0  0  0  0  0  0
   24.9059   72.0865    1.1660 C   0  0  2  0  0  0  0  0  0  0  0  0
   25.0886   69.8760   -1.4775 H   0  0  0  0  0  0  0  0  0  0  0  0
   23.9152   69.0078    0.6227 H   0  0  0  0  0  0  0  0  0  0  0  0
   26.7929   73.3517    2.8443 O   0  0  0  0  0  0  0  0  0  0  0  0
   23.8406   73.4700    6.3814 O   0  0  0  0  0  0  0  0  0  0  0  0
   24.6569   72.4596    2.5299 N   0  0  0  0  0  0  0  0  0  0  0  0
   25.3213   73.4098    4.6041 N   0  0  0  0  0  0  0  0  0  0  0  0
   25.6725   73.0895    3.2865 C   0  0  0  0  0  0  0  0  0  0  0  0
   23.4169   72.2009    3.1038 C   0  0  0  0  0  0  0  0  0  0  0  0
   23.0983   72.5115    4.3621 C   0  0  0  0  0  0  0  0  0  0  0  0
   24.1029   73.1719    5.2203 C   0  0  0  0  0  0  0  0  0  0  0  0
   26.0131   73.8489    5.1503 H   0  0  0  0  0  0  0  0  0  0  0  0
   20.7907   72.8335   -3.8707 O   0  0  0  0  0  0  0  0  0  0  0  0
   20.8481   71.3302   -4.4621 P   0  0  2  0  0  0  0  0  0  0  0  0
   21.8559   70.5713   -3.4492 O   0  0  0  0  0  0  0  0  0  0  0  0
   21.2475   71.2522   -5.9072 O   0  0  0  0  0  0  0  0  0  0  0  0
   19.3957   70.7069   -4.1350 O   0  0  0  0  0  0  0  0  0  0  0  0
   18.0605   70.7716   -6.0920 O   0  0  0  0  0  0  0  0  0  0  0  0
   15.2220   69.4497   -3.4001 O   0  0  0  0  0  0  0  0  0  0  0  0
   16.2808   67.6292   -5.3528 O   0  0  0  0  0  0  0  0  0  0  0  0
   17.1691   71.4319   -2.5884 O   0  0  0  0  0  0  0  0  0  0  0  0
   16.5320   69.5598   -3.9634 C   0  0  1  0  0  0  0  0  0  0  0  0
   16.4811   69.0391   -5.4011 C   0  0  1  0  0  0  0  0  0  0  0  0
   16.9651   71.0244   -3.9370 C   0  0  2  0  0  0  0  0  0  0  0  0
   17.7758   69.3693   -6.1560 C   0  0  1  0  0  0  0  0  0  0  0  0
   18.2357   71.2525   -4.7578 C   0  0  1  0  0  0  0  0  0  0  0  0
   14.9412   68.5220   -3.4134 H   0  0  0  0  0  0  0  0  0  0  0  0
   15.4603   67.4342   -4.8731 H   0  0  0  0  0  0  0  0  0  0  0  0
   16.3577   71.2828   -2.0794 H   0  0  0  0  0  0  0  0  0  0  0  0
   17.1489   70.1023   -8.3420 O   0  0  0  0  0  0  0  0  0  0  0  0
   17.6856   68.9995   -7.6349 C   0  0  0  0  0  0  0  0  0  0  0  0
   17.0860   69.8815   -9.2849 H   0  0  0  0  0  0  0  0  0  0  0  0
 25 28  1  0
 25 24  1  0
 25 26  1  1
 25 27  2  0
  1  4  1  0
  1 24  1  0
  1  2  1  6
  1  3  2  0
  6 11  1  0
  6 12  1  0
 29 36  1  0
 29 37  1  0
  9  7  1  6
  7 13  1  0
 10  8  1  6
  8 14  1  0
 37 28  1  1
  4  5  1  0
 33 30  1  6
 30 38  1  0
 34 31  1  1
 31 39  1  0
 35 32  1  1
 32 40  1  0
 41 42  1  0
 41 43  1  0
 15 19  2  0
 16 22  2  0
 12 17  1  1
 17 19  1  0
 17 20  1  0
 18 19  1  0
 18 22  1  0
 18 23  1  0
  9 10  1  0
  9 11  1  0
 10 12  1  0
 11  5  1  1
 33 34  1  0
 33 35  1  0
 34 36  1  0
 35 37  1  0
 36 42  1  6
 20 21  2  0
 21 22  1  0
M  CHG  2   2  -1  26  -1
M  END
>  <COMPND>  (29) 
    8629 

>  <AUTHOR>  (29) 
    GENERATED BY OPEN BABEL 3.1.1

>  <MASTER>  (29) 
        0    0    0    0    0    0    0    0   58    0   58    0

>  <minimizedAffinity>  (29) 
-6.95425

>  <CNNscore>  (29) 
0.4204296470

>  <CNNaffinity>  (29) 
4.1285047531

>  <CNN_VS>  (29) 
1.7357457876

>  <CNNaffinity_variance>  (29) 
0.4273191988

$$$$
30
     RDKit          3D

 43 45  0  0  0  0  0  0  0  0999 V2000
   17.7333   70.0238   -2.2502 P   0  0  2  0  0  0  0  0  0  0  0  0
   17.3273   68.5412   -1.7458 O   0  0  0  0  0  0  0  0  0  0  0  0
   16.7895   71.1145   -1.8366 O   0  0  0  0  0  0  0  0  0  0  0  0
   17.9473   69.8468   -3.8441 O   0  0  0  0  0  0  0  0  0  0  0  0
   17.0313   69.0400   -4.5638 C   0  0  0  0  0  0  0  0  0  0  0  0
   16.9984   71.1525   -5.7085 O   0  0  0  0  0  0  0  0  0  0  0  0
   15.0539   69.8826   -7.6050 O   0  0  0  0  0  0  0  0  0  0  0  0
   17.3961   69.7802   -8.9980 O   0  0  0  0  0  0  0  0  0  0  0  0
   16.1803   69.3051   -6.9468 C   0  0  1  0  0  0  0  0  0  0  0  0
   17.4662   69.7851   -7.5867 C   0  0  2  0  0  0  0  0  0  0  0  0
   16.2721   69.9137   -5.5530 C   0  0  1  0  0  0  0  0  0  0  0  0
   17.6002   71.1854   -7.0129 C   0  0  2  0  0  0  0  0  0  0  0  0
   14.9745   69.5090   -8.4973 H   0  0  0  0  0  0  0  0  0  0  0  0
   17.3116   68.8672   -9.3145 H   0  0  0  0  0  0  0  0  0  0  0  0
   18.4313   73.8393   -6.5191 O   0  0  0  0  0  0  0  0  0  0  0  0
   22.8822   72.6436   -6.5398 O   0  0  0  0  0  0  0  0  0  0  0  0
   18.9700   71.5958   -6.8842 N   0  0  0  0  0  0  0  0  0  0  0  0
   20.6468   73.2418   -6.5296 N   0  0  0  0  0  0  0  0  0  0  0  0
   19.2803   72.9535   -6.6375 C   0  0  0  0  0  0  0  0  0  0  0  0
   19.9888   70.6567   -7.0023 C   0  0  0  0  0  0  0  0  0  0  0  0
   21.2871   70.9480   -6.8982 C   0  0  0  0  0  0  0  0  0  0  0  0
   21.6965   72.3438   -6.6406 C   0  0  0  0  0  0  0  0  0  0  0  0
   20.8868   74.1813   -6.3582 H   0  0  0  0  0  0  0  0  0  0  0  0
   19.2427   70.1950   -1.6977 O   0  0  0  0  0  0  0  0  0  0  0  0
   20.4527   71.1460   -2.1924 P   0  0  2  0  0  0  0  0  0  0  0  0
   19.8006   72.6262   -2.1542 O   0  0  0  0  0  0  0  0  0  0  0  0
   21.0350   70.7599   -3.5212 O   0  0  0  0  0  0  0  0  0  0  0  0
   21.5075   71.1337   -0.9708 O   0  0  0  0  0  0  0  0  0  0  0  0
   22.5349   72.8251    0.3330 O   0  0  0  0  0  0  0  0  0  0  0  0
   25.8060   70.3781   -0.2692 O   0  0  0  0  0  0  0  0  0  0  0  0
   24.5722   70.4838    2.3221 O   0  0  0  0  0  0  0  0  0  0  0  0
   23.8945   70.7850   -2.4046 O   0  0  0  0  0  0  0  0  0  0  0  0
   24.4234   70.6764   -0.0573 C   0  0  1  0  0  0  0  0  0  0  0  0
   24.2905   71.4115    1.2779 C   0  0  1  0  0  0  0  0  0  0  0  0
   23.9198   71.5503   -1.2046 C   0  0  2  0  0  0  0  0  0  0  0  0
   22.8829   71.9982    1.4496 C   0  0  1  0  0  0  0  0  0  0  0  0
   22.5319   72.1228   -0.9114 C   0  0  1  0  0  0  0  0  0  0  0  0
   26.1318   69.8230    0.4556 H   0  0  0  0  0  0  0  0  0  0  0  0
   25.4636   70.1204    2.2016 H   0  0  0  0  0  0  0  0  0  0  0  0
   24.7789   70.4284   -2.5793 H   0  0  0  0  0  0  0  0  0  0  0  0
   22.6555   72.0210    3.8280 O   0  0  0  0  0  0  0  0  0  0  0  0
   22.7746   72.8682    2.7000 C   0  0  0  0  0  0  0  0  0  0  0  0
   22.5859   72.5610    4.6313 H   0  0  0  0  0  0  0  0  0  0  0  0
 25 28  1  0
 25 24  1  0
 25 26  1  6
 25 27  2  0
  1  4  1  0
  1 24  1  0
  1  2  1  1
  1  3  2  0
  6 11  1  0
  6 12  1  0
 29 36  1  0
 29 37  1  0
  9  7  1  6
  7 13  1  0
 10  8  1  6
  8 14  1  0
 37 28  1  1
  4  5  1  0
 33 30  1  6
 30 38  1  0
 34 31  1  1
 31 39  1  0
 35 32  1  6
 32 40  1  0
 41 42  1  0
 41 43  1  0
 15 19  2  0
 16 22  2  0
 12 17  1  1
 17 19  1  0
 17 20  1  0
 18 19  1  0
 18 22  1  0
 18 23  1  0
  9 10  1  0
  9 11  1  0
 10 12  1  0
 11  5  1  1
 33 34  1  0
 33 35  1  0
 34 36  1  0
 35 37  1  0
 36 42  1  1
 20 21  2  0
 21 22  1  0
M  CHG  2   2  -1  26  -1
M  END
>  <COMPND>  (30) 
    8629 

>  <AUTHOR>  (30) 
    GENERATED BY OPEN BABEL 3.1.1

>  <MASTER>  (30) 
        0    0    0    0    0    0    0    0   58    0   58    0

>  <minimizedAffinity>  (30) 
-7.91874

>  <CNNscore>  (30) 
0.4190025032

>  <CNNaffinity>  (30) 
4.1845769882

>  <CNN_VS>  (30) 
1.7533482313

>  <CNNaffinity_variance>  (30) 
0.7438125014

$$$$
31
     RDKit          3D

 43 45  0  0  0  0  0  0  0  0999 V2000
   22.1647   73.6235   -3.7149 P   0  0  2  0  0  0  0  0  0  0  0  0
   21.7141   74.1042   -2.2373 O   0  0  0  0  0  0  0  0  0  0  0  0
   22.4149   74.7331   -4.6935 O   0  0  0  0  0  0  0  0  0  0  0  0
   21.0262   72.5553   -4.1398 O   0  0  0  0  0  0  0  0  0  0  0  0
   20.4367   72.6700   -5.4232 C   0  0  0  0  0  0  0  0  0  0  0  0
   19.6188   70.4146   -5.2892 O   0  0  0  0  0  0  0  0  0  0  0  0
   20.3081   70.1904   -8.1988 O   0  0  0  0  0  0  0  0  0  0  0  0
   17.6109   70.5882   -8.2558 O   0  0  0  0  0  0  0  0  0  0  0  0
   19.7978   71.3097   -7.4761 C   0  0  1  0  0  0  0  0  0  0  0  0
   18.3319   71.1048   -7.1558 C   0  0  2  0  0  0  0  0  0  0  0  0
   20.4304   71.3013   -6.0901 C   0  0  1  0  0  0  0  0  0  0  0  0
   18.3969   70.1320   -5.9906 C   0  0  2  0  0  0  0  0  0  0  0  0
   19.9186   70.1748   -9.0876 H   0  0  0  0  0  0  0  0  0  0  0  0
   17.5979   71.2437   -8.9707 H   0  0  0  0  0  0  0  0  0  0  0  0
   16.7933   68.0053   -5.0508 O   0  0  0  0  0  0  0  0  0  0  0  0
   14.1884   70.8446   -2.5222 O   0  0  0  0  0  0  0  0  0  0  0  0
   17.2932   70.2869   -5.0856 N   0  0  0  0  0  0  0  0  0  0  0  0
   15.4977   69.4207   -3.7924 N   0  0  0  0  0  0  0  0  0  0  0  0
   16.5515   69.1544   -4.6759 C   0  0  0  0  0  0  0  0  0  0  0  0
   16.9562   71.5509   -4.6135 C   0  0  0  0  0  0  0  0  0  0  0  0
   15.9475   71.7881   -3.7724 C   0  0  0  0  0  0  0  0  0  0  0  0
   15.1227   70.6591   -3.2958 C   0  0  0  0  0  0  0  0  0  0  0  0
   14.9668   68.6470   -3.4937 H   0  0  0  0  0  0  0  0  0  0  0  0
   23.4483   72.6873   -3.4168 O   0  0  0  0  0  0  0  0  0  0  0  0
   23.5807   71.2931   -2.6095 P   0  0  2  0  0  0  0  0  0  0  0  0
   25.1526   70.9345   -2.7439 O   0  0  0  0  0  0  0  0  0  0  0  0
   22.6557   70.2130   -3.0908 O   0  0  0  0  0  0  0  0  0  0  0  0
   23.3862   71.6986   -1.0594 O   0  0  0  0  0  0  0  0  0  0  0  0
   23.2762   70.6516    1.0639 O   0  0  0  0  0  0  0  0  0  0  0  0
   19.7979   72.8700    1.2410 O   0  0  0  0  0  0  0  0  0  0  0  0
   22.0622   73.6546    2.8238 O   0  0  0  0  0  0  0  0  0  0  0  0
   20.5874   71.6188   -1.2471 O   0  0  0  0  0  0  0  0  0  0  0  0
   21.1547   72.6012    0.8776 C   0  0  1  0  0  0  0  0  0  0  0  0
   21.9634   72.3975    2.1603 C   0  0  1  0  0  0  0  0  0  0  0  0
   21.1994   71.3456    0.0087 C   0  0  2  0  0  0  0  0  0  0  0  0
   23.3614   71.8447    1.8519 C   0  0  1  0  0  0  0  0  0  0  0  0
   22.6325   70.8513   -0.1962 C   0  0  1  0  0  0  0  0  0  0  0  0
   19.7624   73.6663    1.7924 H   0  0  0  0  0  0  0  0  0  0  0  0
   21.1727   73.9929    3.0123 H   0  0  0  0  0  0  0  0  0  0  0  0
   19.6807   71.9306   -1.1038 H   0  0  0  0  0  0  0  0  0  0  0  0
   23.2327   71.5427    4.2186 O   0  0  0  0  0  0  0  0  0  0  0  0
   24.1277   71.4859    3.1232 C   0  0  0  0  0  0  0  0  0  0  0  0
   23.7066   71.3163    5.0346 H   0  0  0  0  0  0  0  0  0  0  0  0
 25 28  1  0
 25 24  1  0
 25 26  1  1
 25 27  2  0
  1  4  1  0
  1 24  1  0
  1  2  1  1
  1  3  2  0
  6 11  1  0
  6 12  1  0
 29 36  1  0
 29 37  1  0
  9  7  1  6
  7 13  1  0
 10  8  1  6
  8 14  1  0
 37 28  1  6
  4  5  1  0
 33 30  1  1
 30 38  1  0
 34 31  1  6
 31 39  1  0
 35 32  1  6
 32 40  1  0
 41 42  1  0
 41 43  1  0
 15 19  2  0
 16 22  2  0
 12 17  1  1
 17 19  1  0
 17 20  1  0
 18 19  1  0
 18 22  1  0
 18 23  1  0
  9 10  1  0
  9 11  1  0
 10 12  1  0
 11  5  1  1
 33 34  1  0
 33 35  1  0
 34 36  1  0
 35 37  1  0
 36 42  1  1
 20 21  2  0
 21 22  1  0
M  CHG  2   2  -1  26  -1
M  END
>  <COMPND>  (31) 
    8629 

>  <AUTHOR>  (31) 
    GENERATED BY OPEN BABEL 3.1.1

>  <MASTER>  (31) 
        0    0    0    0    0    0    0    0   58    0   58    0

>  <minimizedAffinity>  (31) 
-6.76177

>  <CNNscore>  (31) 
0.4136177003

>  <CNNaffinity>  (31) 
4.1181039810

>  <CNN_VS>  (31) 
1.7033207417

>  <CNNaffinity_variance>  (31) 
0.2745555937

$$$$
32
     RDKit          3D

 43 45  0  0  0  0  0  0  0  0999 V2000
   23.7197   71.4513   -1.8950 P   0  0  2  0  0  0  0  0  0  0  0  0
   23.5842   72.7090   -2.9036 O   0  0  0  0  0  0  0  0  0  0  0  0
   25.1147   70.9270   -1.7196 O   0  0  0  0  0  0  0  0  0  0  0  0
   22.6344   70.3883   -2.4516 O   0  0  0  0  0  0  0  0  0  0  0  0
   21.6655   70.8364   -3.3834 C   0  0  0  0  0  0  0  0  0  0  0  0
   19.4045   71.6204   -3.6006 O   0  0  0  0  0  0  0  0  0  0  0  0
   19.0230   70.7354   -0.7612 O   0  0  0  0  0  0  0  0  0  0  0  0
   17.8789   68.7040   -2.1758 O   0  0  0  0  0  0  0  0  0  0  0  0
   19.8045   70.1388   -1.7950 C   0  0  1  0  0  0  0  0  0  0  0  0
   18.9071   69.4462   -2.7993 C   0  0  2  0  0  0  0  0  0  0  0  0
   20.4116   71.2591   -2.6303 C   0  0  1  0  0  0  0  0  0  0  0  0
   18.3751   70.6179   -3.6070 C   0  0  2  0  0  0  0  0  0  0  0  0
   18.6252   70.0394   -0.2142 H   0  0  0  0  0  0  0  0  0  0  0  0
   18.2679   67.9703   -1.6746 H   0  0  0  0  0  0  0  0  0  0  0  0
   15.9459   69.4589   -4.4636 O   0  0  0  0  0  0  0  0  0  0  0  0
   17.3646   69.2794   -8.8450 O   0  0  0  0  0  0  0  0  0  0  0  0
   18.0826   70.2584   -4.9659 N   0  0  0  0  0  0  0  0  0  0  0  0
   16.6542   69.3706   -6.6445 N   0  0  0  0  0  0  0  0  0  0  0  0
   16.8328   69.6814   -5.2904 C   0  0  0  0  0  0  0  0  0  0  0  0
   19.0295   70.4791   -5.9602 C   0  0  0  0  0  0  0  0  0  0  0  0
   18.8442   70.1759   -7.2467 C   0  0  0  0  0  0  0  0  0  0  0  0
   17.5653   69.5696   -7.6697 C   0  0  0  0  0  0  0  0  0  0  0  0
   15.7911   68.9673   -6.8941 H   0  0  0  0  0  0  0  0  0  0  0  0
   23.0308   71.9975   -0.5385 O   0  0  0  0  0  0  0  0  0  0  0  0
   22.6819   71.2484    0.8508 P   0  0  2  0  0  0  0  0  0  0  0  0
   23.3983   69.8073    0.6855 O   0  0  0  0  0  0  0  0  0  0  0  0
   21.2145   71.1786    1.1606 O   0  0  0  0  0  0  0  0  0  0  0  0
   23.5643   72.0172    1.9623 O   0  0  0  0  0  0  0  0  0  0  0  0
   24.3545   74.2273    2.2899 O   0  0  0  0  0  0  0  0  0  0  0  0
   27.8384   72.1568    3.0815 O   0  0  0  0  0  0  0  0  0  0  0  0
   26.3987   73.3875    5.2404 O   0  0  0  0  0  0  0  0  0  0  0  0
   26.0768   71.2635    0.9653 O   0  0  0  0  0  0  0  0  0  0  0  0
   26.4248   72.3740    3.0741 C   0  0  1  0  0  0  0  0  0  0  0  0
   26.1315   73.6500    3.8656 C   0  0  1  0  0  0  0  0  0  0  0  0
   25.9492   72.5161    1.6294 C   0  0  2  0  0  0  0  0  0  0  0  0
   24.6744   74.0945    3.6798 C   0  0  1  0  0  0  0  0  0  0  0  0
   24.5032   73.0098    1.5568 C   0  0  1  0  0  0  0  0  0  0  0  0
   28.1467   72.0652    3.9959 H   0  0  0  0  0  0  0  0  0  0  0  0
   27.3217   73.1073    5.3438 H   0  0  0  0  0  0  0  0  0  0  0  0
   26.9967   70.9619    1.0180 H   0  0  0  0  0  0  0  0  0  0  0  0
   25.6345   76.1267    4.4907 O   0  0  0  0  0  0  0  0  0  0  0  0
   24.4020   75.4484    4.3316 C   0  0  0  0  0  0  0  0  0  0  0  0
   25.4765   76.9903    4.9042 H   0  0  0  0  0  0  0  0  0  0  0  0
 25 28  1  0
 25 24  1  0
 25 26  1  6
 25 27  2  0
  1  4  1  0
  1 24  1  0
  1  2  1  6
  1  3  2  0
  6 11  1  0
  6 12  1  0
 29 36  1  0
 29 37  1  0
  9  7  1  1
  7 13  1  0
 10  8  1  1
  8 14  1  0
 37 28  1  1
  4  5  1  0
 33 30  1  6
 30 38  1  0
 34 31  1  1
 31 39  1  0
 35 32  1  1
 32 40  1  0
 41 42  1  0
 41 43  1  0
 15 19  2  0
 16 22  2  0
 12 17  1  6
 17 19  1  0
 17 20  1  0
 18 19  1  0
 18 22  1  0
 18 23  1  0
  9 10  1  0
  9 11  1  0
 10 12  1  0
 11  5  1  6
 33 34  1  0
 33 35  1  0
 34 36  1  0
 35 37  1  0
 36 42  1  1
 20 21  2  0
 21 22  1  0
M  CHG  2   2  -1  26  -1
M  END
>  <COMPND>  (32) 
    8629 

>  <AUTHOR>  (32) 
    GENERATED BY OPEN BABEL 3.1.1

>  <MASTER>  (32) 
        0    0    0    0    0    0    0    0   58    0   58    0

>  <minimizedAffinity>  (32) 
-6.72274

>  <CNNscore>  (32) 
0.4067262113

>  <CNNaffinity>  (32) 
4.2451071739

>  <CNN_VS>  (32) 
1.7265963554

>  <CNNaffinity_variance>  (32) 
0.0660544336

$$$$
33
     RDKit          3D

 43 45  0  0  0  0  0  0  0  0999 V2000
   21.3144   73.3128   -3.2120 P   0  0  2  0  0  0  0  0  0  0  0  0
   20.7935   73.1486   -1.6891 O   0  0  0  0  0  0  0  0  0  0  0  0
   21.2601   74.7112   -3.7531 O   0  0  0  0  0  0  0  0  0  0  0  0
   20.4652   72.2078   -4.0341 O   0  0  0  0  0  0  0  0  0  0  0  0
   20.5598   72.1971   -5.4479 C   0  0  0  0  0  0  0  0  0  0  0  0
   19.0652   70.3296   -5.6775 O   0  0  0  0  0  0  0  0  0  0  0  0
   20.9930   69.2776   -7.7190 O   0  0  0  0  0  0  0  0  0  0  0  0
   19.0185   70.3509   -9.2636 O   0  0  0  0  0  0  0  0  0  0  0  0
   20.6122   70.6255   -7.4481 C   0  0  1  0  0  0  0  0  0  0  0  0
   19.2176   70.8938   -7.9742 C   0  0  2  0  0  0  0  0  0  0  0  0
   20.4167   70.7645   -5.9435 C   0  0  1  0  0  0  0  0  0  0  0  0
   18.3496   70.2289   -6.9195 C   0  0  2  0  0  0  0  0  0  0  0  0
   21.1239   69.1645   -8.6739 H   0  0  0  0  0  0  0  0  0  0  0  0
   19.5927   70.8067   -9.8987 H   0  0  0  0  0  0  0  0  0  0  0  0
   15.9812   68.9126   -6.1219 O   0  0  0  0  0  0  0  0  0  0  0  0
   13.5117   72.7937   -6.4039 O   0  0  0  0  0  0  0  0  0  0  0  0
   17.0736   70.8712   -6.7758 N   0  0  0  0  0  0  0  0  0  0  0  0
   14.7535   70.8462   -6.2628 N   0  0  0  0  0  0  0  0  0  0  0  0
   15.9461   70.1194   -6.3707 C   0  0  0  0  0  0  0  0  0  0  0  0
   16.9495   72.2318   -7.0353 C   0  0  0  0  0  0  0  0  0  0  0  0
   15.8048   72.9097   -6.9289 C   0  0  0  0  0  0  0  0  0  0  0  0
   14.5795   72.1985   -6.5109 C   0  0  0  0  0  0  0  0  0  0  0  0
   13.9547   70.3431   -5.9824 H   0  0  0  0  0  0  0  0  0  0  0  0
   22.7959   72.6683   -3.1609 O   0  0  0  0  0  0  0  0  0  0  0  0
   23.3147   71.2426   -2.6029 P   0  0  2  0  0  0  0  0  0  0  0  0
   24.8858   71.2424   -2.9891 O   0  0  0  0  0  0  0  0  0  0  0  0
   22.5485   70.0618   -3.1248 O   0  0  0  0  0  0  0  0  0  0  0  0
   23.2898   71.3991   -0.9967 O   0  0  0  0  0  0  0  0  0  0  0  0
   23.3778   73.4179    0.2417 O   0  0  0  0  0  0  0  0  0  0  0  0
   25.3197   70.9269    2.9016 O   0  0  0  0  0  0  0  0  0  0  0  0
   22.6530   71.8203    3.4838 O   0  0  0  0  0  0  0  0  0  0  0  0
   25.7774   70.6405    0.0577 O   0  0  0  0  0  0  0  0  0  0  0  0
   24.3574   71.2667    1.8997 C   0  0  1  0  0  0  0  0  0  0  0  0
   23.4620   72.3777    2.4518 C   0  0  1  0  0  0  0  0  0  0  0  0
   25.0890   71.7395    0.6449 C   0  0  2  0  0  0  0  0  0  0  0  0
   22.5812   72.9791    1.3484 C   0  0  1  0  0  0  0  0  0  0  0  0
   24.1278   72.3651   -0.3675 C   0  0  1  0  0  0  0  0  0  0  0  0
   24.8617   70.6254    3.7009 H   0  0  0  0  0  0  0  0  0  0  0  0
   23.2214   71.4435    4.1740 H   0  0  0  0  0  0  0  0  0  0  0  0
   26.3829   70.2534    0.7084 H   0  0  0  0  0  0  0  0  0  0  0  0
   21.3102   74.9009    0.7159 O   0  0  0  0  0  0  0  0  0  0  0  0
   21.7956   74.1923    1.8413 C   0  0  0  0  0  0  0  0  0  0  0  0
   20.8079   75.6757    1.0144 H   0  0  0  0  0  0  0  0  0  0  0  0
 25 28  1  0
 25 24  1  0
 25 26  1  6
 25 27  2  0
  1  4  1  0
  1 24  1  0
  1  2  1  1
  1  3  2  0
  6 11  1  0
  6 12  1  0
 29 36  1  0
 29 37  1  0
  9  7  1  1
  7 13  1  0
 10  8  1  6
  8 14  1  0
 37 28  1  1
  4  5  1  0
 33 30  1  1
 30 38  1  0
 34 31  1  1
 31 39  1  0
 35 32  1  6
 32 40  1  0
 41 42  1  0
 41 43  1  0
 15 19  2  0
 16 22  2  0
 12 17  1  1
 17 19  1  0
 17 20  1  0
 18 19  1  0
 18 22  1  0
 18 23  1  0
  9 10  1  0
  9 11  1  0
 10 12  1  0
 11  5  1  6
 33 34  1  0
 33 35  1  0
 34 36  1  0
 35 37  1  0
 36 42  1  1
 20 21  2  0
 21 22  1  0
M  CHG  2   2  -1  26  -1
M  END
>  <COMPND>  (33) 
    8629 

>  <AUTHOR>  (33) 
    GENERATED BY OPEN BABEL 3.1.1

>  <MASTER>  (33) 
        0    0    0    0    0    0    0    0   58    0   58    0

>  <minimizedAffinity>  (33) 
-6.88920

>  <CNNscore>  (33) 
0.3982957602

>  <CNNaffinity>  (33) 
4.1974678040

>  <CNN_VS>  (33) 
1.6718336344

>  <CNNaffinity_variance>  (33) 
0.2245589793

$$$$
34
     RDKit          3D

 43 45  0  0  0  0  0  0  0  0999 V2000
   24.1486   71.4722   -1.7236 P   0  0  2  0  0  0  0  0  0  0  0  0
   24.7371   71.4624   -0.2166 O   0  0  0  0  0  0  0  0  0  0  0  0
   25.0444   70.8562   -2.7577 O   0  0  0  0  0  0  0  0  0  0  0  0
   23.7471   73.0195   -1.9737 O   0  0  0  0  0  0  0  0  0  0  0  0
   22.9851   73.3428   -3.1238 C   0  0  0  0  0  0  0  0  0  0  0  0
   23.7625   72.7365   -5.3151 O   0  0  0  0  0  0  0  0  0  0  0  0
   24.8194   75.5357   -5.5102 O   0  0  0  0  0  0  0  0  0  0  0  0
   22.5130   75.6689   -6.9591 O   0  0  0  0  0  0  0  0  0  0  0  0
   23.6274   75.0630   -4.8849 C   0  0  1  0  0  0  0  0  0  0  0  0
   22.5923   74.7034   -5.9303 C   0  0  2  0  0  0  0  0  0  0  0  0
   23.9317   73.7075   -4.2592 C   0  0  1  0  0  0  0  0  0  0  0  0
   23.0994   73.3602   -6.4269 C   0  0  2  0  0  0  0  0  0  0  0  0
   24.6499   76.4005   -5.9168 H   0  0  0  0  0  0  0  0  0  0  0  0
   22.1856   76.5053   -6.5932 H   0  0  0  0  0  0  0  0  0  0  0  0
   21.9614   73.4499   -9.0105 O   0  0  0  0  0  0  0  0  0  0  0  0
   19.0259   70.0333   -8.0355 O   0  0  0  0  0  0  0  0  0  0  0  0
   22.0366   72.5053   -6.8753 N   0  0  0  0  0  0  0  0  0  0  0  0
   20.5008   71.7485   -8.5230 N   0  0  0  0  0  0  0  0  0  0  0  0
   21.5359   72.6322   -8.1919 C   0  0  0  0  0  0  0  0  0  0  0  0
   21.5022   71.5538   -6.0133 C   0  0  0  0  0  0  0  0  0  0  0  0
   20.5143   70.7195   -6.3440 C   0  0  0  0  0  0  0  0  0  0  0  0
   19.9350   70.7866   -7.7012 C   0  0  0  0  0  0  0  0  0  0  0  0
   20.1360   71.8189   -9.4350 H   0  0  0  0  0  0  0  0  0  0  0  0
   22.7137   70.7466   -1.5582 O   0  0  0  0  0  0  0  0  0  0  0  0
   21.6842   70.7016   -0.3128 P   0  0  2  0  0  0  0  0  0  0  0  0
   21.9352   72.1181    0.4275 O   0  0  0  0  0  0  0  0  0  0  0  0
   21.8447   69.5018    0.5752 O   0  0  0  0  0  0  0  0  0  0  0  0
   20.2238   70.8459   -0.9846 O   0  0  0  0  0  0  0  0  0  0  0  0
   19.4490   70.5731   -3.2077 O   0  0  0  0  0  0  0  0  0  0  0  0
   17.2460   73.9000   -2.1448 O   0  0  0  0  0  0  0  0  0  0  0  0
   15.9372   71.3570   -2.4067 O   0  0  0  0  0  0  0  0  0  0  0  0
   19.9821   73.6302   -1.2389 O   0  0  0  0  0  0  0  0  0  0  0  0
   17.8958   72.6443   -1.9295 C   0  0  1  0  0  0  0  0  0  0  0  0
   17.2630   71.6105   -2.8631 C   0  0  1  0  0  0  0  0  0  0  0  0
   19.3864   72.7961   -2.2269 C   0  0  2  0  0  0  0  0  0  0  0  0
   18.0785   70.3107   -2.8844 C   0  0  1  0  0  0  0  0  0  0  0  0
   20.0941   71.4407   -2.2733 C   0  0  1  0  0  0  0  0  0  0  0  0
   16.2993   73.8105   -1.9572 H   0  0  0  0  0  0  0  0  0  0  0  0
   15.4331   72.1859   -2.3975 H   0  0  0  0  0  0  0  0  0  0  0  0
   19.5255   74.4851   -1.2197 H   0  0  0  0  0  0  0  0  0  0  0  0
   16.2523   68.9202   -3.5482 O   0  0  0  0  0  0  0  0  0  0  0  0
   17.5554   69.3243   -3.9263 C   0  0  0  0  0  0  0  0  0  0  0  0
   15.9066   68.2924   -4.2025 H   0  0  0  0  0  0  0  0  0  0  0  0
 25 28  1  0
 25 24  1  0
 25 26  1  1
 25 27  2  0
  1  4  1  0
  1 24  1  0
  1  2  1  1
  1  3  2  0
  6 11  1  0
  6 12  1  0
 29 36  1  0
 29 37  1  0
  9  7  1  6
  7 13  1  0
 10  8  1  6
  8 14  1  0
 37 28  1  1
  4  5  1  0
 33 30  1  6
 30 38  1  0
 34 31  1  1
 31 39  1  0
 35 32  1  1
 32 40  1  0
 41 42  1  0
 41 43  1  0
 15 19  2  0
 16 22  2  0
 12 17  1  1
 17 19  1  0
 17 20  1  0
 18 19  1  0
 18 22  1  0
 18 23  1  0
  9 10  1  0
  9 11  1  0
 10 12  1  0
 11  5  1  1
 33 34  1  0
 33 35  1  0
 34 36  1  0
 35 37  1  0
 36 42  1  6
 20 21  2  0
 21 22  1  0
M  CHG  2   2  -1  26  -1
M  END
>  <COMPND>  (34) 
    8629 

>  <AUTHOR>  (34) 
    GENERATED BY OPEN BABEL 3.1.1

>  <MASTER>  (34) 
        0    0    0    0    0    0    0    0   58    0   58    0

>  <minimizedAffinity>  (34) 
-6.95989

>  <CNNscore>  (34) 
0.3971476257

>  <CNNaffinity>  (34) 
3.9783027172

>  <CNN_VS>  (34) 
1.5799734592

>  <CNNaffinity_variance>  (34) 
0.5172247887

$$$$
35
     RDKit          3D

 43 45  0  0  0  0  0  0  0  0999 V2000
   21.4718   70.9840   -1.8595 P   0  0  2  0  0  0  0  0  0  0  0  0
   20.5522   69.7036   -1.4957 O   0  0  0  0  0  0  0  0  0  0  0  0
   20.9951   72.2885   -1.2917 O   0  0  0  0  0  0  0  0  0  0  0  0
   21.6004   70.9245   -3.4713 O   0  0  0  0  0  0  0  0  0  0  0  0
   21.2488   72.0746   -4.2206 C   0  0  0  0  0  0  0  0  0  0  0  0
   19.8630   70.6334   -5.5534 O   0  0  0  0  0  0  0  0  0  0  0  0
   20.4840   72.4657   -7.8442 O   0  0  0  0  0  0  0  0  0  0  0  0
   17.9883   73.2723   -7.0977 O   0  0  0  0  0  0  0  0  0  0  0  0
   20.2840   72.7791   -6.4669 C   0  0  1  0  0  0  0  0  0  0  0  0
   18.8143   72.6835   -6.1140 C   0  0  2  0  0  0  0  0  0  0  0  0
   20.8844   71.6513   -5.6370 C   0  0  1  0  0  0  0  0  0  0  0  0
   18.6136   71.1815   -6.0046 C   0  0  2  0  0  0  0  0  0  0  0  0
   20.1090   73.1721   -8.3941 H   0  0  0  0  0  0  0  0  0  0  0  0
   18.1529   74.2276   -7.1288 H   0  0  0  0  0  0  0  0  0  0  0  0
   15.8688   70.9884   -6.6421 O   0  0  0  0  0  0  0  0  0  0  0  0
   14.7581   69.8394   -2.3192 O   0  0  0  0  0  0  0  0  0  0  0  0
   17.5853   70.8333   -5.0651 N   0  0  0  0  0  0  0  0  0  0  0  0
   15.3180   70.4163   -4.4891 N   0  0  0  0  0  0  0  0  0  0  0  0
   16.2370   70.7649   -5.4870 C   0  0  0  0  0  0  0  0  0  0  0  0
   17.9178   70.5637   -3.7420 C   0  0  0  0  0  0  0  0  0  0  0  0
   17.0293   70.2338   -2.8024 C   0  0  0  0  0  0  0  0  0  0  0  0
   15.5993   70.1403   -3.1604 C   0  0  0  0  0  0  0  0  0  0  0  0
   14.3727   70.3628   -4.7598 H   0  0  0  0  0  0  0  0  0  0  0  0
   22.9408   70.5299   -1.3608 O   0  0  0  0  0  0  0  0  0  0  0  0
   24.2797   71.3909   -1.0801 P   0  0  2  0  0  0  0  0  0  0  0  0
   24.1441   72.6334   -2.1074 O   0  0  0  0  0  0  0  0  0  0  0  0
   25.5541   70.6094   -1.2183 O   0  0  0  0  0  0  0  0  0  0  0  0
   24.0488   72.0413    0.3789 O   0  0  0  0  0  0  0  0  0  0  0  0
   25.2625   71.4501    2.3267 O   0  0  0  0  0  0  0  0  0  0  0  0
   21.7231   72.6388    4.0903 O   0  0  0  0  0  0  0  0  0  0  0  0
   24.0514   74.3043    4.3206 O   0  0  0  0  0  0  0  0  0  0  0  0
   21.6720   71.1749    1.5935 O   0  0  0  0  0  0  0  0  0  0  0  0
   22.7728   72.6782    3.1198 C   0  0  1  0  0  0  0  0  0  0  0  0
   24.0886   72.9607    3.8477 C   0  0  1  0  0  0  0  0  0  0  0  0
   22.8358   71.3336    2.3977 C   0  0  2  0  0  0  0  0  0  0  0  0
   25.2916   72.7546    2.9174 C   0  0  1  0  0  0  0  0  0  0  0  0
   24.0951   71.2127    1.5376 C   0  0  1  0  0  0  0  0  0  0  0  0
   21.6775   73.4898    4.5520 H   0  0  0  0  0  0  0  0  0  0  0  0
   23.2870   74.4211    4.9064 H   0  0  0  0  0  0  0  0  0  0  0  0
   20.8817   71.2532    2.1495 H   0  0  0  0  0  0  0  0  0  0  0  0
   27.5842   73.4129    2.7770 O   0  0  0  0  0  0  0  0  0  0  0  0
   26.6187   72.8772    3.6631 C   0  0  0  0  0  0  0  0  0  0  0  0
   28.4340   73.4968    3.2380 H   0  0  0  0  0  0  0  0  0  0  0  0
 25 28  1  0
 25 24  1  0
 25 26  1  6
 25 27  2  0
  1  4  1  0
  1 24  1  0
  1  2  1  1
  1  3  2  0
  6 11  1  0
  6 12  1  0
 29 36  1  0
 29 37  1  0
  9  7  1  6
  7 13  1  0
 10  8  1  6
  8 14  1  0
 37 28  1  6
  4  5  1  0
 33 30  1  1
 30 38  1  0
 34 31  1  6
 31 39  1  0
 35 32  1  6
 32 40  1  0
 41 42  1  0
 41 43  1  0
 15 19  2  0
 16 22  2  0
 12 17  1  1
 17 19  1  0
 17 20  1  0
 18 19  1  0
 18 22  1  0
 18 23  1  0
  9 10  1  0
  9 11  1  0
 10 12  1  0
 11  5  1  1
 33 34  1  0
 33 35  1  0
 34 36  1  0
 35 37  1  0
 36 42  1  1
 20 21  2  0
 21 22  1  0
M  CHG  2   2  -1  26  -1
M  END
>  <COMPND>  (35) 
    8629 

>  <AUTHOR>  (35) 
    GENERATED BY OPEN BABEL 3.1.1

>  <MASTER>  (35) 
        0    0    0    0    0    0    0    0   58    0   58    0

>  <minimizedAffinity>  (35) 
-6.59356

>  <CNNscore>  (35) 
0.3815055192

>  <CNNaffinity>  (35) 
4.1329870224

>  <CNN_VS>  (35) 
1.5767573118

>  <CNNaffinity_variance>  (35) 
0.0352112800

$$$$
36
     RDKit          3D

 43 45  0  0  0  0  0  0  0  0999 V2000
   18.3183   73.1355   -0.8996 P   0  0  2  0  0  0  0  0  0  0  0  0
   18.2960   74.7525   -0.9467 O   0  0  0  0  0  0  0  0  0  0  0  0
   17.0934   72.5017   -0.3086 O   0  0  0  0  0  0  0  0  0  0  0  0
   19.7153   72.7877   -0.1612 O   0  0  0  0  0  0  0  0  0  0  0  0
   20.0067   73.4263    1.0697 C   0  0  0  0  0  0  0  0  0  0  0  0
   21.5879   71.6170    1.0699 O   0  0  0  0  0  0  0  0  0  0  0  0
   22.1344   72.3425    3.9275 O   0  0  0  0  0  0  0  0  0  0  0  0
   24.2439   73.4667    2.6150 O   0  0  0  0  0  0  0  0  0  0  0  0
   21.8368   73.1934    2.8217 C   0  0  1  0  0  0  0  0  0  0  0  0
   23.0354   73.2989    1.9020 C   0  0  2  0  0  0  0  0  0  0  0  0
   20.8210   72.4784    1.9395 C   0  0  1  0  0  0  0  0  0  0  0  0
   22.9763   71.9777    1.1545 C   0  0  2  0  0  0  0  0  0  0  0  0
   22.7810   72.7780    4.5055 H   0  0  0  0  0  0  0  0  0  0  0  0
   24.2331   74.3215    3.0733 H   0  0  0  0  0  0  0  0  0  0  0  0
   24.9262   70.2326    0.0913 O   0  0  0  0  0  0  0  0  0  0  0  0
   24.9685   72.4470   -3.9505 O   0  0  0  0  0  0  0  0  0  0  0  0
   23.5145   72.0749   -0.1730 N   0  0  0  0  0  0  0  0  0  0  0  0
   24.9455   71.3365   -1.9204 N   0  0  0  0  0  0  0  0  0  0  0  0
   24.4907   71.1489   -0.6089 C   0  0  0  0  0  0  0  0  0  0  0  0
   23.0739   73.0798   -1.0275 C   0  0  0  0  0  0  0  0  0  0  0  0
   23.5187   73.2458   -2.2749 C   0  0  0  0  0  0  0  0  0  0  0  0
   24.5395   72.3206   -2.8077 C   0  0  0  0  0  0  0  0  0  0  0  0
   25.6262   70.7035   -2.2456 H   0  0  0  0  0  0  0  0  0  0  0  0
   18.6097   72.7311   -2.4373 O   0  0  0  0  0  0  0  0  0  0  0  0
   19.2257   71.3827   -3.0819 P   0  0  2  0  0  0  0  0  0  0  0  0
   18.9678   70.2716   -1.9346 O   0  0  0  0  0  0  0  0  0  0  0  0
   20.6582   71.5059   -3.5139 O   0  0  0  0  0  0  0  0  0  0  0  0
   18.2013   70.9911   -4.2661 O   0  0  0  0  0  0  0  0  0  0  0  0
   16.1682   72.0209   -4.9161 O   0  0  0  0  0  0  0  0  0  0  0  0
   15.1696   68.0787   -5.6323 O   0  0  0  0  0  0  0  0  0  0  0  0
   15.6458   69.8455   -7.8459 O   0  0  0  0  0  0  0  0  0  0  0  0
   16.7760   68.7649   -3.3241 O   0  0  0  0  0  0  0  0  0  0  0  0
   16.0394   69.2124   -5.5732 C   0  0  1  0  0  0  0  0  0  0  0  0
   15.4831   70.2927   -6.5028 C   0  0  1  0  0  0  0  0  0  0  0  0
   16.0999   69.7206   -4.1339 C   0  0  2  0  0  0  0  0  0  0  0  0
   16.2065   71.6299   -6.2936 C   0  0  1  0  0  0  0  0  0  0  0  0
   16.7964   71.0796   -4.0436 C   0  0  1  0  0  0  0  0  0  0  0  0
   15.1271   67.7508   -6.5435 H   0  0  0  0  0  0  0  0  0  0  0  0
   15.1847   69.0002   -7.9646 H   0  0  0  0  0  0  0  0  0  0  0  0
   16.3253   67.9090   -3.3896 H   0  0  0  0  0  0  0  0  0  0  0  0
   16.1397   72.7755   -8.3893 O   0  0  0  0  0  0  0  0  0  0  0  0
   15.5642   72.7593   -7.0959 C   0  0  0  0  0  0  0  0  0  0  0  0
   15.7402   73.4893   -8.9114 H   0  0  0  0  0  0  0  0  0  0  0  0
 25 28  1  0
 25 24  1  0
 25 26  1  1
 25 27  2  0
  1  4  1  0
  1 24  1  0
  1  2  1  6
  1  3  2  0
  6 11  1  0
  6 12  1  0
 29 36  1  0
 29 37  1  0
  9  7  1  1
  7 13  1  0
 10  8  1  1
  8 14  1  0
 37 28  1  6
  4  5  1  0
 33 30  1  1
 30 38  1  0
 34 31  1  6
 31 39  1  0
 35 32  1  1
 32 40  1  0
 41 42  1  0
 41 43  1  0
 15 19  2  0
 16 22  2  0
 12 17  1  6
 17 19  1  0
 17 20  1  0
 18 19  1  0
 18 22  1  0
 18 23  1  0
  9 10  1  0
  9 11  1  0
 10 12  1  0
 11  5  1  6
 33 34  1  0
 33 35  1  0
 34 36  1  0
 35 37  1  0
 36 42  1  6
 20 21  2  0
 21 22  1  0
M  CHG  2   2  -1  26  -1
M  END
>  <COMPND>  (36) 
    8629 

>  <AUTHOR>  (36) 
    GENERATED BY OPEN BABEL 3.1.1

>  <MASTER>  (36) 
        0    0    0    0    0    0    0    0   58    0   58    0

>  <minimizedAffinity>  (36) 
-6.89186

>  <CNNscore>  (36) 
0.3789838254

>  <CNNaffinity>  (36) 
3.8389611244

>  <CNN_VS>  (36) 
1.4549041986

>  <CNNaffinity_variance>  (36) 
0.3725613952

$$$$
37
     RDKit          3D

 43 45  0  0  0  0  0  0  0  0999 V2000
   21.3682   73.2545   -3.1133 P   0  0  2  0  0  0  0  0  0  0  0  0
   20.8909   73.0749   -1.5780 O   0  0  0  0  0  0  0  0  0  0  0  0
   21.2345   74.6454   -3.6600 O   0  0  0  0  0  0  0  0  0  0  0  0
   20.5543   72.1052   -3.9100 O   0  0  0  0  0  0  0  0  0  0  0  0
   20.5363   72.1478   -5.3262 C   0  0  0  0  0  0  0  0  0  0  0  0
   19.0371   70.2980   -5.6492 O   0  0  0  0  0  0  0  0  0  0  0  0
   21.0183   69.2853   -7.6591 O   0  0  0  0  0  0  0  0  0  0  0  0
   19.0982   70.4129   -9.2333 O   0  0  0  0  0  0  0  0  0  0  0  0
   20.6384   70.6285   -7.3645 C   0  0  1  0  0  0  0  0  0  0  0  0
   19.2620   70.9206   -7.9248 C   0  0  2  0  0  0  0  0  0  0  0  0
   20.3987   70.7298   -5.8632 C   0  0  1  0  0  0  0  0  0  0  0  0
   18.3584   70.2349   -6.9142 C   0  0  2  0  0  0  0  0  0  0  0  0
   21.1771   69.1961   -8.6124 H   0  0  0  0  0  0  0  0  0  0  0  0
   19.6941   70.8809   -9.8388 H   0  0  0  0  0  0  0  0  0  0  0  0
   15.9588   68.9158   -6.2216 O   0  0  0  0  0  0  0  0  0  0  0  0
   13.5240   72.8207   -6.4762 O   0  0  0  0  0  0  0  0  0  0  0  0
   17.0829   70.8825   -6.7919 N   0  0  0  0  0  0  0  0  0  0  0  0
   14.7484   70.8612   -6.3488 N   0  0  0  0  0  0  0  0  0  0  0  0
   15.9390   70.1288   -6.4400 C   0  0  0  0  0  0  0  0  0  0  0  0
   16.9755   72.2502   -7.0196 C   0  0  0  0  0  0  0  0  0  0  0  0
   15.8326   72.9335   -6.9297 C   0  0  0  0  0  0  0  0  0  0  0  0
   14.5907   72.2207   -6.5668 C   0  0  0  0  0  0  0  0  0  0  0  0
   13.9384   70.3570   -6.1053 H   0  0  0  0  0  0  0  0  0  0  0  0
   22.8797   72.6818   -3.0934 O   0  0  0  0  0  0  0  0  0  0  0  0
   23.4994   71.3443   -2.4303 P   0  0  2  0  0  0  0  0  0  0  0  0
   24.9894   71.2756   -3.0570 O   0  0  0  0  0  0  0  0  0  0  0  0
   22.6763   70.1087   -2.6533 O   0  0  0  0  0  0  0  0  0  0  0  0
   23.7270   71.7253   -0.8786 O   0  0  0  0  0  0  0  0  0  0  0  0
   24.7975   70.8080    1.0265 O   0  0  0  0  0  0  0  0  0  0  0  0
   21.0931   71.6013    2.6692 O   0  0  0  0  0  0  0  0  0  0  0  0
   23.3435   73.2325    3.3921 O   0  0  0  0  0  0  0  0  0  0  0  0
   21.2877   70.6159   -0.0457 O   0  0  0  0  0  0  0  0  0  0  0  0
   22.2158   71.8328    1.8141 C   0  0  1  0  0  0  0  0  0  0  0  0
   23.4595   71.9982    2.6898 C   0  0  1  0  0  0  0  0  0  0  0  0
   22.3776   70.6433    0.8696 C   0  0  2  0  0  0  0  0  0  0  0  0
   24.7392   71.9835    1.8429 C   0  0  1  0  0  0  0  0  0  0  0  0
   23.7051   70.7004    0.1116 C   0  0  1  0  0  0  0  0  0  0  0  0
   20.9845   72.3532    3.2712 H   0  0  0  0  0  0  0  0  0  0  0  0
   22.5311   73.2290    3.9225 H   0  0  0  0  0  0  0  0  0  0  0  0
   20.4532   70.5795    0.4464 H   0  0  0  0  0  0  0  0  0  0  0  0
   27.0747   71.4882    1.9375 O   0  0  0  0  0  0  0  0  0  0  0  0
   25.9976   71.9886    2.7081 C   0  0  0  0  0  0  0  0  0  0  0  0
   27.8825   71.4859    2.4753 H   0  0  0  0  0  0  0  0  0  0  0  0
 25 28  1  0
 25 24  1  0
 25 26  1  6
 25 27  2  0
  1  4  1  0
  1 24  1  0
  1  2  1  1
  1  3  2  0
  6 11  1  0
  6 12  1  0
 29 36  1  0
 29 37  1  0
  9  7  1  1
  7 13  1  0
 10  8  1  6
  8 14  1  0
 37 28  1  6
  4  5  1  0
 33 30  1  1
 30 38  1  0
 34 31  1  6
 31 39  1  0
 35 32  1  6
 32 40  1  0
 41 42  1  0
 41 43  1  0
 15 19  2  0
 16 22  2  0
 12 17  1  1
 17 19  1  0
 17 20  1  0
 18 19  1  0
 18 22  1  0
 18 23  1  0
  9 10  1  0
  9 11  1  0
 10 12  1  0
 11  5  1  6
 33 34  1  0
 33 35  1  0
 34 36  1  0
 35 37  1  0
 36 42  1  1
 20 21  2  0
 21 22  1  0
M  CHG  2   2  -1  26  -1
M  END
>  <COMPND>  (37) 
    8629 

>  <AUTHOR>  (37) 
    GENERATED BY OPEN BABEL 3.1.1

>  <MASTER>  (37) 
        0    0    0    0    0    0    0    0   58    0   58    0

>  <minimizedAffinity>  (37) 
-7.64591

>  <CNNscore>  (37) 
0.3767939210

>  <CNNaffinity>  (37) 
4.1609916687

>  <CNN_VS>  (37) 
1.5678364038

>  <CNNaffinity_variance>  (37) 
0.2197602242

$$$$
38
     RDKit          3D

 43 45  0  0  0  0  0  0  0  0999 V2000
   18.8331   73.3521   -3.4291 P   0  0  2  0  0  0  0  0  0  0  0  0
   19.0941   74.3848   -2.2114 O   0  0  0  0  0  0  0  0  0  0  0  0
   17.4258   73.3279   -3.9490 O   0  0  0  0  0  0  0  0  0  0  0  0
   19.4005   71.9431   -2.8717 O   0  0  0  0  0  0  0  0  0  0  0  0
   19.4630   71.7463   -1.4699 C   0  0  0  0  0  0  0  0  0  0  0  0
   21.5456   70.7514   -2.1382 O   0  0  0  0  0  0  0  0  0  0  0  0
   21.6250   69.5294    0.5989 O   0  0  0  0  0  0  0  0  0  0  0  0
   23.3353   71.6396    0.8402 O   0  0  0  0  0  0  0  0  0  0  0  0
   21.1424   70.8102    0.1963 C   0  0  1  0  0  0  0  0  0  0  0  0
   22.3010   71.7336   -0.1179 C   0  0  2  0  0  0  0  0  0  0  0  0
   20.4805   70.6550   -1.1672 C   0  0  1  0  0  0  0  0  0  0  0  0
   22.7298   71.2450   -1.4911 C   0  0  2  0  0  0  0  0  0  0  0  0
   22.0517   69.6032    1.4674 H   0  0  0  0  0  0  0  0  0  0  0  0
   23.0134   71.9620    1.6964 H   0  0  0  0  0  0  0  0  0  0  0  0
   25.1220   71.0028   -2.9732 O   0  0  0  0  0  0  0  0  0  0  0  0
   24.8115   75.3300   -4.5290 O   0  0  0  0  0  0  0  0  0  0  0  0
   23.2970   72.2925   -2.2926 N   0  0  0  0  0  0  0  0  0  0  0  0
   24.9654   73.1575   -3.7468 N   0  0  0  0  0  0  0  0  0  0  0  0
   24.5029   72.0685   -2.9970 C   0  0  0  0  0  0  0  0  0  0  0  0
   22.6586   73.5252   -2.3747 C   0  0  0  0  0  0  0  0  0  0  0  0
   23.1134   74.5539   -3.0931 C   0  0  0  0  0  0  0  0  0  0  0  0
   24.3674   74.4027   -3.8590 C   0  0  0  0  0  0  0  0  0  0  0  0
   25.8040   73.0248   -4.2456 H   0  0  0  0  0  0  0  0  0  0  0  0
   19.9455   73.7863   -4.5186 O   0  0  0  0  0  0  0  0  0  0  0  0
   20.4621   73.0477   -5.8605 P   0  0  2  0  0  0  0  0  0  0  0  0
   21.5647   72.0011   -5.3069 O   0  0  0  0  0  0  0  0  0  0  0  0
   20.9717   73.9816   -6.9196 O   0  0  0  0  0  0  0  0  0  0  0  0
   19.2208   72.1255   -6.3228 O   0  0  0  0  0  0  0  0  0  0  0  0
   18.6561   70.0564   -5.3146 O   0  0  0  0  0  0  0  0  0  0  0  0
   17.1443   69.3815   -9.0974 O   0  0  0  0  0  0  0  0  0  0  0  0
   15.3400   69.8334   -6.9092 O   0  0  0  0  0  0  0  0  0  0  0  0
   19.6341   70.8220   -8.7734 O   0  0  0  0  0  0  0  0  0  0  0  0
   17.4706   70.1630   -7.9450 C   0  0  1  0  0  0  0  0  0  0  0  0
   16.7312   69.5749   -6.7416 C   0  0  1  0  0  0  0  0  0  0  0  0
   18.9811   70.1178   -7.7226 C   0  0  2  0  0  0  0  0  0  0  0  0
   17.2344   70.1886   -5.4282 C   0  0  1  0  0  0  0  0  0  0  0  0
   19.3703   70.7088   -6.3664 C   0  0  1  0  0  0  0  0  0  0  0  0
   16.1865   69.4064   -9.2445 H   0  0  0  0  0  0  0  0  0  0  0  0
   15.0350   69.4410   -7.7424 H   0  0  0  0  0  0  0  0  0  0  0  0
   19.3798   70.4381   -9.6265 H   0  0  0  0  0  0  0  0  0  0  0  0
   16.6255   70.4241   -3.1297 O   0  0  0  0  0  0  0  0  0  0  0  0
   16.6238   69.5051   -4.2066 C   0  0  0  0  0  0  0  0  0  0  0  0
   16.2394   70.0029   -2.3454 H   0  0  0  0  0  0  0  0  0  0  0  0
 25 28  1  0
 25 24  1  0
 25 26  1  1
 25 27  2  0
  1  4  1  0
  1 24  1  0
  1  2  1  1
  1  3  2  0
  6 11  1  0
  6 12  1  0
 29 36  1  0
 29 37  1  0
  9  7  1  6
  7 13  1  0
 10  8  1  1
  8 14  1  0
 37 28  1  6
  4  5  1  0
 33 30  1  6
 30 38  1  0
 34 31  1  6
 31 39  1  0
 35 32  1  6
 32 40  1  0
 41 42  1  0
 41 43  1  0
 15 19  2  0
 16 22  2  0
 12 17  1  6
 17 19  1  0
 17 20  1  0
 18 19  1  0
 18 22  1  0
 18 23  1  0
  9 10  1  0
  9 11  1  0
 10 12  1  0
 11  5  1  6
 33 34  1  0
 33 35  1  0
 34 36  1  0
 35 37  1  0
 36 42  1  1
 20 21  2  0
 21 22  1  0
M  CHG  2   2  -1  26  -1
M  END
>  <COMPND>  (38) 
    8629 

>  <AUTHOR>  (38) 
    GENERATED BY OPEN BABEL 3.1.1

>  <MASTER>  (38) 
        0    0    0    0    0    0    0    0   58    0   58    0

>  <minimizedAffinity>  (38) 
-7.06547

>  <CNNscore>  (38) 
0.3626544774

>  <CNNaffinity>  (38) 
3.8697075844

>  <CNN_VS>  (38) 
1.4033668041

>  <CNNaffinity_variance>  (38) 
0.8733465075

$$$$
39
     RDKit          3D

 43 45  0  0  0  0  0  0  0  0999 V2000
   22.1380   72.9861   -5.1649 P   0  0  2  0  0  0  0  0  0  0  0  0
   23.6728   72.4814   -5.2498 O   0  0  0  0  0  0  0  0  0  0  0  0
   21.8565   74.2803   -5.8701 O   0  0  0  0  0  0  0  0  0  0  0  0
   21.8086   72.9629   -3.5809 O   0  0  0  0  0  0  0  0  0  0  0  0
   20.7063   73.7177   -3.1085 C   0  0  0  0  0  0  0  0  0  0  0  0
   20.5512   71.7002   -1.8125 O   0  0  0  0  0  0  0  0  0  0  0  0
   17.9321   72.7651   -0.8140 O   0  0  0  0  0  0  0  0  0  0  0  0
   19.6246   73.3171    1.2518 O   0  0  0  0  0  0  0  0  0  0  0  0
   19.1331   73.4698   -1.1244 C   0  0  1  0  0  0  0  0  0  0  0  0
   20.1727   73.2366   -0.0481 C   0  0  2  0  0  0  0  0  0  0  0  0
   19.7716   72.7986   -2.3341 C   0  0  1  0  0  0  0  0  0  0  0  0
   20.6702   71.8418   -0.3875 C   0  0  2  0  0  0  0  0  0  0  0  0
   17.5062   73.1758   -0.0446 H   0  0  0  0  0  0  0  0  0  0  0  0
   19.3226   74.2233    1.4200 H   0  0  0  0  0  0  0  0  0  0  0  0
   21.7366   69.3894    0.5215 O   0  0  0  0  0  0  0  0  0  0  0  0
   25.9461   71.1968    1.0262 O   0  0  0  0  0  0  0  0  0  0  0  0
   22.0417   71.6431   -0.0121 N   0  0  0  0  0  0  0  0  0  0  0  0
   23.8318   70.2913    0.7719 N   0  0  0  0  0  0  0  0  0  0  0  0
   22.4753   70.3722    0.4321 C   0  0  0  0  0  0  0  0  0  0  0  0
   22.9409   72.7013   -0.0866 C   0  0  0  0  0  0  0  0  0  0  0  0
   24.2310   72.6080    0.2424 C   0  0  0  0  0  0  0  0  0  0  0  0
   24.7646   71.3147    0.7161 C   0  0  0  0  0  0  0  0  0  0  0  0
   24.1563   69.4156    1.0844 H   0  0  0  0  0  0  0  0  0  0  0  0
   21.3070   71.7189   -5.7274 O   0  0  0  0  0  0  0  0  0  0  0  0
   20.7299   71.3982   -7.2029 P   0  0  2  0  0  0  0  0  0  0  0  0
   21.2757   69.9041   -7.4982 O   0  0  0  0  0  0  0  0  0  0  0  0
   21.1059   72.4120   -8.2444 O   0  0  0  0  0  0  0  0  0  0  0  0
   19.1404   71.2167   -6.9893 O   0  0  0  0  0  0  0  0  0  0  0  0
   18.2515   69.5404   -5.5694 O   0  0  0  0  0  0  0  0  0  0  0  0
   15.0008   70.0912   -8.0555 O   0  0  0  0  0  0  0  0  0  0  0  0
   14.9019   71.0647   -5.3554 O   0  0  0  0  0  0  0  0  0  0  0  0
   17.6815   70.1685   -9.1452 O   0  0  0  0  0  0  0  0  0  0  0  0
   16.1543   70.4917   -7.3109 C   0  0  1  0  0  0  0  0  0  0  0  0
   15.9061   70.1747   -5.8349 C   0  0  1  0  0  0  0  0  0  0  0  0
   17.3720   69.7276   -7.8275 C   0  0  2  0  0  0  0  0  0  0  0  0
   17.1923   70.3270   -5.0117 C   0  0  1  0  0  0  0  0  0  0  0  0
   18.5827   69.9075   -6.9101 C   0  0  1  0  0  0  0  0  0  0  0  0
   14.2242   70.5730   -7.7328 H   0  0  0  0  0  0  0  0  0  0  0  0
   14.0953   70.9588   -5.8839 H   0  0  0  0  0  0  0  0  0  0  0  0
   16.9072   70.0490   -9.7162 H   0  0  0  0  0  0  0  0  0  0  0  0
   15.8229   69.0902   -3.4939 O   0  0  0  0  0  0  0  0  0  0  0  0
   17.0057   69.8646   -3.5683 C   0  0  0  0  0  0  0  0  0  0  0  0
   15.6914   68.7887   -2.5809 H   0  0  0  0  0  0  0  0  0  0  0  0
 25 28  1  0
 25 24  1  0
 25 26  1  6
 25 27  2  0
  1  4  1  0
  1 24  1  0
  1  2  1  1
  1  3  2  0
  6 11  1  0
  6 12  1  0
 29 36  1  0
 29 37  1  0
  9  7  1  1
  7 13  1  0
 10  8  1  1
  8 14  1  0
 37 28  1  1
  4  5  1  0
 33 30  1  6
 30 38  1  0
 34 31  1  1
 31 39  1  0
 35 32  1  6
 32 40  1  0
 41 42  1  0
 41 43  1  0
 15 19  2  0
 16 22  2  0
 12 17  1  6
 17 19  1  0
 17 20  1  0
 18 19  1  0
 18 22  1  0
 18 23  1  0
  9 10  1  0
  9 11  1  0
 10 12  1  0
 11  5  1  1
 33 34  1  0
 33 35  1  0
 34 36  1  0
 35 37  1  0
 36 42  1  1
 20 21  2  0
 21 22  1  0
M  CHG  2   2  -1  26  -1
M  END
>  <COMPND>  (39) 
    8629 

>  <AUTHOR>  (39) 
    GENERATED BY OPEN BABEL 3.1.1

>  <MASTER>  (39) 
        0    0    0    0    0    0    0    0   58    0   58    0

>  <minimizedAffinity>  (39) 
-8.08746

>  <CNNscore>  (39) 
0.3610089421

>  <CNNaffinity>  (39) 
4.1983213425

>  <CNN_VS>  (39) 
1.5156315565

>  <CNNaffinity_variance>  (39) 
0.4481344223

$$$$
40
     RDKit          3D

 43 45  0  0  0  0  0  0  0  0999 V2000
   17.2901   70.1189   -2.2226 P   0  0  2  0  0  0  0  0  0  0  0  0
   17.3919   68.5880   -1.7096 O   0  0  0  0  0  0  0  0  0  0  0  0
   16.1224   70.8917   -1.6833 O   0  0  0  0  0  0  0  0  0  0  0  0
   17.3664   69.9946   -3.8340 O   0  0  0  0  0  0  0  0  0  0  0  0
   16.3391   69.2877   -4.5070 C   0  0  0  0  0  0  0  0  0  0  0  0
   16.6161   71.3403   -5.7252 O   0  0  0  0  0  0  0  0  0  0  0  0
   14.8771   70.1058   -7.8329 O   0  0  0  0  0  0  0  0  0  0  0  0
   17.3804   69.7883   -8.8668 O   0  0  0  0  0  0  0  0  0  0  0  0
   15.8556   69.4907   -6.9966 C   0  0  1  0  0  0  0  0  0  0  0  0
   17.2497   69.8569   -7.4615 C   0  0  2  0  0  0  0  0  0  0  0  0
   15.7907   70.1588   -5.6288 C   0  0  1  0  0  0  0  0  0  0  0  0
   17.3979   71.2720   -6.9289 C   0  0  2  0  0  0  0  0  0  0  0  0
   14.8993   69.6953   -8.7121 H   0  0  0  0  0  0  0  0  0  0  0  0
   17.2784   68.8683   -9.1566 H   0  0  0  0  0  0  0  0  0  0  0  0
   18.3852   73.9057   -6.6711 O   0  0  0  0  0  0  0  0  0  0  0  0
   22.6450   72.4132   -5.7394 O   0  0  0  0  0  0  0  0  0  0  0  0
   18.7607   71.6006   -6.6191 N   0  0  0  0  0  0  0  0  0  0  0  0
   20.5054   73.1604   -6.2072 N   0  0  0  0  0  0  0  0  0  0  0  0
   19.1540   72.9551   -6.5132 C   0  0  0  0  0  0  0  0  0  0  0  0
   19.6911   70.5857   -6.4235 C   0  0  0  0  0  0  0  0  0  0  0  0
   20.9764   70.7982   -6.1336 C   0  0  0  0  0  0  0  0  0  0  0  0
   21.4689   72.1849   -6.0050 C   0  0  0  0  0  0  0  0  0  0  0  0
   20.8023   74.0961   -6.1288 H   0  0  0  0  0  0  0  0  0  0  0  0
   18.7365   70.7286   -1.8363 O   0  0  0  0  0  0  0  0  0  0  0  0
   19.2838   72.2496   -1.8442 P   0  0  2  0  0  0  0  0  0  0  0  0
   18.4361   72.9551   -0.6605 O   0  0  0  0  0  0  0  0  0  0  0  0
   19.1771   72.9352   -3.1756 O   0  0  0  0  0  0  0  0  0  0  0  0
   20.7862   72.1461   -1.2637 O   0  0  0  0  0  0  0  0  0  0  0  0
   22.7280   71.7323   -2.5577 O   0  0  0  0  0  0  0  0  0  0  0  0
   23.9491   70.0636    1.0165 O   0  0  0  0  0  0  0  0  0  0  0  0
   25.0849   72.5565    0.1542 O   0  0  0  0  0  0  0  0  0  0  0  0
   21.2079   69.7529    0.1398 O   0  0  0  0  0  0  0  0  0  0  0  0
   23.2654   71.0043    0.1840 C   0  0  1  0  0  0  0  0  0  0  0  0
   24.3022   71.7151   -0.6882 C   0  0  1  0  0  0  0  0  0  0  0  0
   22.2529   70.2592   -0.6837 C   0  0  2  0  0  0  0  0  0  0  0  0
   23.6259   72.5422   -1.7898 C   0  0  1  0  0  0  0  0  0  0  0  0
   21.6765   71.1592   -1.7782 C   0  0  1  0  0  0  0  0  0  0  0  0
   24.5933   70.5303    1.5704 H   0  0  0  0  0  0  0  0  0  0  0  0
   25.5061   72.0221    0.8457 H   0  0  0  0  0  0  0  0  0  0  0  0
   21.5857   69.1845    0.8284 H   0  0  0  0  0  0  0  0  0  0  0  0
   24.8878   72.1818   -3.7865 O   0  0  0  0  0  0  0  0  0  0  0  0
   24.6408   73.1321   -2.7666 C   0  0  0  0  0  0  0  0  0  0  0  0
   25.5318   72.5438   -4.4158 H   0  0  0  0  0  0  0  0  0  0  0  0
 25 28  1  0
 25 24  1  0
 25 26  1  1
 25 27  2  0
  1  4  1  0
  1 24  1  0
  1  2  1  1
  1  3  2  0
  6 11  1  0
  6 12  1  0
 29 36  1  0
 29 37  1  0
  9  7  1  6
  7 13  1  0
 10  8  1  6
  8 14  1  0
 37 28  1  1
  4  5  1  0
 33 30  1  1
 30 38  1  0
 34 31  1  1
 31 39  1  0
 35 32  1  1
 32 40  1  0
 41 42  1  0
 41 43  1  0
 15 19  2  0
 16 22  2  0
 12 17  1  1
 17 19  1  0
 17 20  1  0
 18 19  1  0
 18 22  1  0
 18 23  1  0
  9 10  1  0
  9 11  1  0
 10 12  1  0
 11  5  1  1
 33 34  1  0
 33 35  1  0
 34 36  1  0
 35 37  1  0
 36 42  1  6
 20 21  2  0
 21 22  1  0
M  CHG  2   2  -1  26  -1
M  END
>  <COMPND>  (40) 
    8629 

>  <AUTHOR>  (40) 
    GENERATED BY OPEN BABEL 3.1.1

>  <MASTER>  (40) 
        0    0    0    0    0    0    0    0   58    0   58    0

>  <minimizedAffinity>  (40) 
-7.71343

>  <CNNscore>  (40) 
0.3407796323

>  <CNNaffinity>  (40) 
3.9871242046

>  <CNN_VS>  (40) 
1.3587306738

>  <CNNaffinity_variance>  (40) 
0.9612868428

$$$$
41
     RDKit          3D

 43 45  0  0  0  0  0  0  0  0999 V2000
   21.3694   70.7201   -1.9189 P   0  0  2  0  0  0  0  0  0  0  0  0
   22.6770   70.1461   -2.6791 O   0  0  0  0  0  0  0  0  0  0  0  0
   20.7723   69.7955   -0.8990 O   0  0  0  0  0  0  0  0  0  0  0  0
   20.3855   71.1679   -3.1227 O   0  0  0  0  0  0  0  0  0  0  0  0
   20.7856   72.2386   -3.9601 C   0  0  0  0  0  0  0  0  0  0  0  0
   20.9104   70.5721   -5.6867 O   0  0  0  0  0  0  0  0  0  0  0  0
   23.0064   72.3056   -6.9488 O   0  0  0  0  0  0  0  0  0  0  0  0
   20.7874   72.8865   -8.4237 O   0  0  0  0  0  0  0  0  0  0  0  0
   21.8302   72.6858   -6.2365 C   0  0  1  0  0  0  0  0  0  0  0  0
   20.6009   72.4561   -7.0907 C   0  0  2  0  0  0  0  0  0  0  0  0
   21.6228   71.6862   -5.1055 C   0  0  1  0  0  0  0  0  0  0  0  0
   20.4184   70.9518   -6.9823 C   0  0  2  0  0  0  0  0  0  0  0  0
   23.1596   72.9297   -7.6761 H   0  0  0  0  0  0  0  0  0  0  0  0
   20.8988   73.8499   -8.4399 H   0  0  0  0  0  0  0  0  0  0  0  0
   19.1037   70.4101   -9.4228 O   0  0  0  0  0  0  0  0  0  0  0  0
   15.1362   69.4494   -7.2833 O   0  0  0  0  0  0  0  0  0  0  0  0
   19.0421   70.5577   -7.0922 N   0  0  0  0  0  0  0  0  0  0  0  0
   17.1293   69.9320   -8.3555 N   0  0  0  0  0  0  0  0  0  0  0  0
   18.4779   70.3103   -8.3654 C   0  0  0  0  0  0  0  0  0  0  0  0
   18.2671   70.4199   -5.9458 C   0  0  0  0  0  0  0  0  0  0  0  0
   16.9820   70.0596   -5.9536 C   0  0  0  0  0  0  0  0  0  0  0  0
   16.3165   69.7826   -7.2429 C   0  0  0  0  0  0  0  0  0  0  0  0
   16.7148   69.7548   -9.2311 H   0  0  0  0  0  0  0  0  0  0  0  0
   21.8846   72.1330   -1.3261 O   0  0  0  0  0  0  0  0  0  0  0  0
   21.1170   73.2670   -0.4672 P   0  0  2  0  0  0  0  0  0  0  0  0
   19.8198   72.4861    0.1029 O   0  0  0  0  0  0  0  0  0  0  0  0
   20.7989   74.5142   -1.2401 O   0  0  0  0  0  0  0  0  0  0  0  0
   22.0524   73.5023    0.8268 O   0  0  0  0  0  0  0  0  0  0  0  0
   24.2846   72.8074    1.2157 O   0  0  0  0  0  0  0  0  0  0  0  0
   22.7972   72.4250    5.0488 O   0  0  0  0  0  0  0  0  0  0  0  0
   24.5994   74.5752    4.4351 O   0  0  0  0  0  0  0  0  0  0  0  0
   21.1487   71.7030    2.7815 O   0  0  0  0  0  0  0  0  0  0  0  0
   22.9203   73.0149    3.7518 C   0  0  1  0  0  0  0  0  0  0  0  0
   24.3697   73.4689    3.5670 C   0  0  1  0  0  0  0  0  0  0  0  0
   22.5424   71.9793    2.6944 C   0  0  2  0  0  0  0  0  0  0  0  0
   24.6442   73.8666    2.1105 C   0  0  1  0  0  0  0  0  0  0  0  0
   22.9019   72.4537    1.2852 C   0  0  1  0  0  0  0  0  0  0  0  0
   23.0353   73.0775    5.7248 H   0  0  0  0  0  0  0  0  0  0  0  0
   24.4220   74.3110    5.3516 H   0  0  0  0  0  0  0  0  0  0  0  0
   20.9340   71.4033    3.6781 H   0  0  0  0  0  0  0  0  0  0  0  0
   26.4618   75.3409    2.5919 O   0  0  0  0  0  0  0  0  0  0  0  0
   26.1210   74.1719    1.8696 C   0  0  0  0  0  0  0  0  0  0  0  0
   27.3991   75.5472    2.4482 H   0  0  0  0  0  0  0  0  0  0  0  0
 25 28  1  0
 25 24  1  0
 25 26  1  1
 25 27  2  0
  1  4  1  0
  1 24  1  0
  1  2  1  6
  1  3  2  0
  6 11  1  0
  6 12  1  0
 29 36  1  0
 29 37  1  0
  9  7  1  6
  7 13  1  0
 10  8  1  6
  8 14  1  0
 37 28  1  1
  4  5  1  0
 33 30  1  1
 30 38  1  0
 34 31  1  1
 31 39  1  0
 35 32  1  6
 32 40  1  0
 41 42  1  0
 41 43  1  0
 15 19  2  0
 16 22  2  0
 12 17  1  1
 17 19  1  0
 17 20  1  0
 18 19  1  0
 18 22  1  0
 18 23  1  0
  9 10  1  0
  9 11  1  0
 10 12  1  0
 11  5  1  1
 33 34  1  0
 33 35  1  0
 34 36  1  0
 35 37  1  0
 36 42  1  1
 20 21  2  0
 21 22  1  0
M  CHG  2   2  -1  26  -1
M  END
>  <COMPND>  (41) 
    8629 

>  <AUTHOR>  (41) 
    GENERATED BY OPEN BABEL 3.1.1

>  <MASTER>  (41) 
        0    0    0    0    0    0    0    0   58    0   58    0

>  <minimizedAffinity>  (41) 
-6.86614

>  <CNNscore>  (41) 
0.7901191115

>  <CNNaffinity>  (41) 
4.4275484085

>  <CNN_VS>  (41) 
3.4982905388

>  <CNNaffinity_variance>  (41) 
0.1084168404

$$$$
42
     RDKit          3D

 43 45  0  0  0  0  0  0  0  0999 V2000
   23.5258   71.4341   -1.8210 P   0  0  2  0  0  0  0  0  0  0  0  0
   24.5299   71.0131   -3.0177 O   0  0  0  0  0  0  0  0  0  0  0  0
   23.3418   72.9120   -1.6385 O   0  0  0  0  0  0  0  0  0  0  0  0
   24.0955   70.6329   -0.5359 O   0  0  0  0  0  0  0  0  0  0  0  0
   24.4541   71.3732    0.6178 C   0  0  0  0  0  0  0  0  0  0  0  0
   24.1418   71.1247    2.9873 O   0  0  0  0  0  0  0  0  0  0  0  0
   21.2202   71.5416    2.4570 O   0  0  0  0  0  0  0  0  0  0  0  0
   22.0139   73.9866    3.3672 O   0  0  0  0  0  0  0  0  0  0  0  0
   22.3473   72.1410    1.8200 C   0  0  1  0  0  0  0  0  0  0  0  0
   22.9785   73.1735    2.7306 C   0  0  2  0  0  0  0  0  0  0  0  0
   23.4454   71.0893    1.7224 C   0  0  1  0  0  0  0  0  0  0  0  0
   23.7468   72.3023    3.7099 C   0  0  2  0  0  0  0  0  0  0  0  0
   20.5056   72.1942    2.5303 H   0  0  0  0  0  0  0  0  0  0  0  0
   21.5524   74.5215    2.7026 H   0  0  0  0  0  0  0  0  0  0  0  0
   23.9964   73.3267    6.3302 O   0  0  0  0  0  0  0  0  0  0  0  0
   28.2985   74.7829    5.5477 O   0  0  0  0  0  0  0  0  0  0  0  0
   24.9212   72.9537    4.2177 N   0  0  0  0  0  0  0  0  0  0  0  0
   26.1384   74.0508    5.9385 N   0  0  0  0  0  0  0  0  0  0  0  0
   24.9434   73.4330    5.5482 C   0  0  0  0  0  0  0  0  0  0  0  0
   26.0346   73.1116    3.3996 C   0  0  0  0  0  0  0  0  0  0  0  0
   27.1661   73.7042    3.7866 C   0  0  0  0  0  0  0  0  0  0  0  0
   27.2717   74.2328    5.1619 C   0  0  0  0  0  0  0  0  0  0  0  0
   26.1768   74.3928    6.8612 H   0  0  0  0  0  0  0  0  0  0  0  0
   22.1723   70.6271   -2.1815 O   0  0  0  0  0  0  0  0  0  0  0  0
   20.7814   70.4723   -1.3726 P   0  0  2  0  0  0  0  0  0  0  0  0
   20.3171   72.0040   -1.1363 O   0  0  0  0  0  0  0  0  0  0  0  0
   20.8874   69.6567   -0.1166 O   0  0  0  0  0  0  0  0  0  0  0  0
   19.7386   69.8934   -2.4600 O   0  0  0  0  0  0  0  0  0  0  0  0
   18.8518   71.4984   -3.9613 O   0  0  0  0  0  0  0  0  0  0  0  0
   16.1970   68.4119   -4.6514 O   0  0  0  0  0  0  0  0  0  0  0  0
   18.1626   69.0632   -6.6415 O   0  0  0  0  0  0  0  0  0  0  0  0
   17.1526   68.9215   -1.9669 O   0  0  0  0  0  0  0  0  0  0  0  0
   17.4686   68.9947   -4.3536 C   0  0  1  0  0  0  0  0  0  0  0  0
   17.8689   69.8960   -5.5233 C   0  0  1  0  0  0  0  0  0  0  0  0
   17.3563   69.8056   -3.0639 C   0  0  2  0  0  0  0  0  0  0  0  0
   19.0862   70.7596   -5.1659 C   0  0  1  0  0  0  0  0  0  0  0  0
   18.5989   70.6661   -2.8277 C   0  0  1  0  0  0  0  0  0  0  0  0
   16.2616   67.8953   -5.4690 H   0  0  0  0  0  0  0  0  0  0  0  0
   17.3861   68.5228   -6.8565 H   0  0  0  0  0  0  0  0  0  0  0  0
   16.3631   68.3827   -2.1284 H   0  0  0  0  0  0  0  0  0  0  0  0
   18.2814   71.8894   -7.1113 O   0  0  0  0  0  0  0  0  0  0  0  0
   19.4059   71.7774   -6.2585 C   0  0  0  0  0  0  0  0  0  0  0  0
   18.4703   72.5342   -7.8115 H   0  0  0  0  0  0  0  0  0  0  0  0
 25 28  1  0
 25 24  1  0
 25 26  1  1
 25 27  2  0
  1  4  1  0
  1 24  1  0
  1  2  1  6
  1  3  2  0
  6 11  1  0
  6 12  1  0
 29 36  1  0
 29 37  1  0
  9  7  1  1
  7 13  1  0
 10  8  1  1
  8 14  1  0
 37 28  1  6
  4  5  1  0
 33 30  1  6
 30 38  1  0
 34 31  1  6
 31 39  1  0
 35 32  1  1
 32 40  1  0
 41 42  1  0
 41 43  1  0
 15 19  2  0
 16 22  2  0
 12 17  1  6
 17 19  1  0
 17 20  1  0
 18 19  1  0
 18 22  1  0
 18 23  1  0
  9 10  1  0
  9 11  1  0
 10 12  1  0
 11  5  1  6
 33 34  1  0
 33 35  1  0
 34 36  1  0
 35 37  1  0
 36 42  1  6
 20 21  2  0
 21 22  1  0
M  CHG  2   2  -1  26  -1
M  END
>  <COMPND>  (42) 
    8629 

>  <AUTHOR>  (42) 
    GENERATED BY OPEN BABEL 3.1.1

>  <MASTER>  (42) 
        0    0    0    0    0    0    0    0   58    0   58    0

>  <minimizedAffinity>  (42) 
-7.65307

>  <CNNscore>  (42) 
0.7444592714

>  <CNNaffinity>  (42) 
4.4476866722

>  <CNN_VS>  (42) 
3.3111214638

>  <CNNaffinity_variance>  (42) 
0.0843730569

$$$$
43
     RDKit          3D

 43 45  0  0  0  0  0  0  0  0999 V2000
   24.2331   72.0488   -3.1003 P   0  0  2  0  0  0  0  0  0  0  0  0
   24.9818   73.2466   -3.8891 O   0  0  0  0  0  0  0  0  0  0  0  0
   25.0917   70.8564   -2.7963 O   0  0  0  0  0  0  0  0  0  0  0  0
   22.9172   71.7572   -3.9953 O   0  0  0  0  0  0  0  0  0  0  0  0
   22.3563   72.8241   -4.7404 C   0  0  0  0  0  0  0  0  0  0  0  0
   21.2064   71.0089   -5.8159 O   0  0  0  0  0  0  0  0  0  0  0  0
   20.7474   72.8987   -8.0982 O   0  0  0  0  0  0  0  0  0  0  0  0
   18.3473   72.9355   -6.8041 O   0  0  0  0  0  0  0  0  0  0  0  0
   20.7654   73.1643   -6.6966 C   0  0  1  0  0  0  0  0  0  0  0  0
   19.5025   72.6400   -6.0458 C   0  0  2  0  0  0  0  0  0  0  0  0
   21.8372   72.2840   -6.0659 C   0  0  1  0  0  0  0  0  0  0  0  0
   19.7843   71.1492   -5.9667 C   0  0  2  0  0  0  0  0  0  0  0  0
   20.0706   73.4497   -8.5228 H   0  0  0  0  0  0  0  0  0  0  0  0
   18.2107   73.8956   -6.8247 H   0  0  0  0  0  0  0  0  0  0  0  0
   17.2423   69.9230   -6.0798 O   0  0  0  0  0  0  0  0  0  0  0  0
   17.3843   68.7966   -1.6130 O   0  0  0  0  0  0  0  0  0  0  0  0
   19.1332   70.5273   -4.8483 N   0  0  0  0  0  0  0  0  0  0  0  0
   17.3152   69.3630   -3.8556 N   0  0  0  0  0  0  0  0  0  0  0  0
   17.8564   69.9410   -5.0110 C   0  0  0  0  0  0  0  0  0  0  0  0
   19.7602   70.5028   -3.6073 C   0  0  0  0  0  0  0  0  0  0  0  0
   19.2300   69.9487   -2.5150 C   0  0  0  0  0  0  0  0  0  0  0  0
   17.8987   69.3144   -2.5995 C   0  0  0  0  0  0  0  0  0  0  0  0
   16.4262   68.9487   -3.9449 H   0  0  0  0  0  0  0  0  0  0  0  0
   23.6295   72.7926   -1.7983 O   0  0  0  0  0  0  0  0  0  0  0  0
   22.3794   72.4164   -0.8450 P   0  0  2  0  0  0  0  0  0  0  0  0
   22.3161   70.8023   -0.9358 O   0  0  0  0  0  0  0  0  0  0  0  0
   21.0976   73.1079   -1.2096 O   0  0  0  0  0  0  0  0  0  0  0  0
   22.9010   72.7204    0.6518 O   0  0  0  0  0  0  0  0  0  0  0  0
   24.8160   71.6880    1.5918 O   0  0  0  0  0  0  0  0  0  0  0  0
   22.7433   72.5201    5.0648 O   0  0  0  0  0  0  0  0  0  0  0  0
   25.0847   74.0489    4.4100 O   0  0  0  0  0  0  0  0  0  0  0  0
   21.3133   71.6499    2.7032 O   0  0  0  0  0  0  0  0  0  0  0  0
   23.1924   72.7550    3.7275 C   0  0  1  0  0  0  0  0  0  0  0  0
   24.7197   72.8438    3.7431 C   0  0  1  0  0  0  0  0  0  0  0  0
   22.7299   71.6038    2.8362 C   0  0  2  0  0  0  0  0  0  0  0  0
   25.2902   72.8276    2.3186 C   0  0  1  0  0  0  0  0  0  0  0  0
   23.3937   71.6540    1.4589 C   0  0  1  0  0  0  0  0  0  0  0  0
   23.0333   73.2477    5.6358 H   0  0  0  0  0  0  0  0  0  0  0  0
   24.7179   74.0467    5.3082 H   0  0  0  0  0  0  0  0  0  0  0  0
   20.9049   71.6171    3.5818 H   0  0  0  0  0  0  0  0  0  0  0  0
   27.2054   71.4467    2.6845 O   0  0  0  0  0  0  0  0  0  0  0  0
   26.8156   72.7564    2.3141 C   0  0  0  0  0  0  0  0  0  0  0  0
   28.1740   71.3865    2.6857 H   0  0  0  0  0  0  0  0  0  0  0  0
 25 28  1  0
 25 24  1  0
 25 26  1  1
 25 27  2  0
  1  4  1  0
  1 24  1  0
  1  2  1  6
  1  3  2  0
  6 11  1  0
  6 12  1  0
 29 36  1  0
 29 37  1  0
  9  7  1  6
  7 13  1  0
 10  8  1  6
  8 14  1  0
 37 28  1  1
  4  5  1  0
 33 30  1  1
 30 38  1  0
 34 31  1  6
 31 39  1  0
 35 32  1  6
 32 40  1  0
 41 42  1  0
 41 43  1  0
 15 19  2  0
 16 22  2  0
 12 17  1  1
 17 19  1  0
 17 20  1  0
 18 19  1  0
 18 22  1  0
 18 23  1  0
  9 10  1  0
  9 11  1  0
 10 12  1  0
 11  5  1  1
 33 34  1  0
 33 35  1  0
 34 36  1  0
 35 37  1  0
 36 42  1  1
 20 21  2  0
 21 22  1  0
M  CHG  2   2  -1  26  -1
M  END
>  <COMPND>  (43) 
    8629 

>  <AUTHOR>  (43) 
    GENERATED BY OPEN BABEL 3.1.1

>  <MASTER>  (43) 
        0    0    0    0    0    0    0    0   58    0   58    0

>  <minimizedAffinity>  (43) 
-7.63621

>  <CNNscore>  (43) 
0.6981211305

>  <CNNaffinity>  (43) 
4.3592095375

>  <CNN_VS>  (43) 
3.0432562828

>  <CNNaffinity_variance>  (43) 
0.2186289281

$$$$
44
     RDKit          3D

 43 45  0  0  0  0  0  0  0  0999 V2000
   20.0667   70.8389   -2.2620 P   0  0  2  0  0  0  0  0  0  0  0  0
   20.3224   69.7769   -1.0686 O   0  0  0  0  0  0  0  0  0  0  0  0
   20.6890   70.4754   -3.5780 O   0  0  0  0  0  0  0  0  0  0  0  0
   20.5345   72.2531   -1.6303 O   0  0  0  0  0  0  0  0  0  0  0  0
   21.4214   72.2396   -0.5252 C   0  0  0  0  0  0  0  0  0  0  0  0
   23.5735   73.1925   -0.0414 O   0  0  0  0  0  0  0  0  0  0  0  0
   24.6563   71.3408   -2.1365 O   0  0  0  0  0  0  0  0  0  0  0  0
   25.3066   70.0605    0.1818 O   0  0  0  0  0  0  0  0  0  0  0  0
   23.6071   71.1227   -1.1947 C   0  0  1  0  0  0  0  0  0  0  0  0
   24.1799   70.9133    0.1915 C   0  0  2  0  0  0  0  0  0  0  0  0
   22.8450   72.4316   -1.0297 C   0  0  1  0  0  0  0  0  0  0  0  0
   24.5250   72.3332    0.6075 C   0  0  2  0  0  0  0  0  0  0  0  0
   25.1570   70.5184   -2.2587 H   0  0  0  0  0  0  0  0  0  0  0  0
   25.0355   69.1695   -0.0890 H   0  0  0  0  0  0  0  0  0  0  0  0
   26.6053   73.3670    2.2142 O   0  0  0  0  0  0  0  0  0  0  0  0
   24.0649   73.0247    6.0444 O   0  0  0  0  0  0  0  0  0  0  0  0
   24.4342   72.5252    2.0275 N   0  0  0  0  0  0  0  0  0  0  0  0
   25.3386   73.1959    4.1200 N   0  0  0  0  0  0  0  0  0  0  0  0
   25.5368   73.0501    2.7411 C   0  0  0  0  0  0  0  0  0  0  0  0
   23.2615   72.1947    2.6979 C   0  0  0  0  0  0  0  0  0  0  0  0
   23.0890   72.3386    4.0135 C   0  0  0  0  0  0  0  0  0  0  0  0
   24.1924   72.8806    4.8325 C   0  0  0  0  0  0  0  0  0  0  0  0
   26.0933   73.5594    4.6378 H   0  0  0  0  0  0  0  0  0  0  0  0
   18.4558   70.9699   -2.2930 O   0  0  0  0  0  0  0  0  0  0  0  0
   17.3096   69.8894   -2.6557 P   0  0  2  0  0  0  0  0  0  0  0  0
   15.9383   70.6663   -2.2904 O   0  0  0  0  0  0  0  0  0  0  0  0
   17.4730   68.5648   -1.9680 O   0  0  0  0  0  0  0  0  0  0  0  0
   17.3171   69.8115   -4.2678 O   0  0  0  0  0  0  0  0  0  0  0  0
   18.3816   71.2315   -5.8384 O   0  0  0  0  0  0  0  0  0  0  0  0
   14.9556   70.3451   -7.9662 O   0  0  0  0  0  0  0  0  0  0  0  0
   17.4609   69.1926   -8.7682 O   0  0  0  0  0  0  0  0  0  0  0  0
   14.8117   70.7589   -5.1048 O   0  0  0  0  0  0  0  0  0  0  0  0
   16.0350   70.0814   -7.0659 C   0  0  1  0  0  0  0  0  0  0  0  0
   17.3496   70.2579   -7.8285 C   0  0  1  0  0  0  0  0  0  0  0  0
   15.9578   71.0584   -5.8942 C   0  0  2  0  0  0  0  0  0  0  0  0
   18.5497   70.2543   -6.8720 C   0  0  1  0  0  0  0  0  0  0  0  0
   17.2217   71.0096   -5.0338 C   0  0  1  0  0  0  0  0  0  0  0  0
   14.9985   69.7278   -8.7123 H   0  0  0  0  0  0  0  0  0  0  0  0
   16.6968   69.2058   -9.3658 H   0  0  0  0  0  0  0  0  0  0  0  0
   14.0183   70.7934   -5.6609 H   0  0  0  0  0  0  0  0  0  0  0  0
   19.5628   70.8632   -8.9485 O   0  0  0  0  0  0  0  0  0  0  0  0
   19.8553   70.5859   -7.5913 C   0  0  0  0  0  0  0  0  0  0  0  0
   20.3845   71.0763   -9.4187 H   0  0  0  0  0  0  0  0  0  0  0  0
 25 28  1  0
 25 24  1  0
 25 26  1  1
 25 27  2  0
  1  4  1  0
  1 24  1  0
  1  2  1  1
  1  3  2  0
  6 11  1  0
  6 12  1  0
 29 36  1  0
 29 37  1  0
  9  7  1  6
  7 13  1  0
 10  8  1  6
  8 14  1  0
 37 28  1  6
  4  5  1  0
 33 30  1  6
 30 38  1  0
 34 31  1  6
 31 39  1  0
 35 32  1  1
 32 40  1  0
 41 42  1  0
 41 43  1  0
 15 19  2  0
 16 22  2  0
 12 17  1  1
 17 19  1  0
 17 20  1  0
 18 19  1  0
 18 22  1  0
 18 23  1  0
  9 10  1  0
  9 11  1  0
 10 12  1  0
 11  5  1  1
 33 34  1  0
 33 35  1  0
 34 36  1  0
 35 37  1  0
 36 42  1  6
 20 21  2  0
 21 22  1  0
M  CHG  2   2  -1  26  -1
M  END
>  <COMPND>  (44) 
    8629 

>  <AUTHOR>  (44) 
    GENERATED BY OPEN BABEL 3.1.1

>  <MASTER>  (44) 
        0    0    0    0    0    0    0    0   58    0   58    0

>  <minimizedAffinity>  (44) 
-7.65369

>  <CNNscore>  (44) 
0.6589549780

>  <CNNaffinity>  (44) 
4.5001072884

>  <CNN_VS>  (44) 
2.9653680325

>  <CNNaffinity_variance>  (44) 
0.2120427787

$$$$
45
     RDKit          3D

 43 45  0  0  0  0  0  0  0  0999 V2000
   19.7232   72.4344   -1.7580 P   0  0  2  0  0  0  0  0  0  0  0  0
   18.7421   71.2246   -1.3207 O   0  0  0  0  0  0  0  0  0  0  0  0
   19.1254   73.8062   -1.6486 O   0  0  0  0  0  0  0  0  0  0  0  0
   20.2346   72.0062   -3.2321 O   0  0  0  0  0  0  0  0  0  0  0  0
   21.0234   72.9254   -3.9675 C   0  0  0  0  0  0  0  0  0  0  0  0
   21.3296   70.9696   -5.3295 O   0  0  0  0  0  0  0  0  0  0  0  0
   23.6952   72.3880   -6.5054 O   0  0  0  0  0  0  0  0  0  0  0  0
   21.7780   72.7494   -8.4108 O   0  0  0  0  0  0  0  0  0  0  0  0
   22.4433   72.9226   -6.0787 C   0  0  1  0  0  0  0  0  0  0  0  0
   21.3561   72.5740   -7.0736 C   0  0  2  0  0  0  0  0  0  0  0  0
   22.0012   72.1516   -4.8412 C   0  0  1  0  0  0  0  0  0  0  0  0
   21.0740   71.1199   -6.7355 C   0  0  2  0  0  0  0  0  0  0  0  0
   23.9982   72.8650   -7.2946 H   0  0  0  0  0  0  0  0  0  0  0  0
   21.9447   73.6904   -8.5766 H   0  0  0  0  0  0  0  0  0  0  0  0
   20.0365   70.6182   -9.3142 O   0  0  0  0  0  0  0  0  0  0  0  0
   15.8377   69.7059   -7.6471 O   0  0  0  0  0  0  0  0  0  0  0  0
   19.7133   70.7491   -7.0043 N   0  0  0  0  0  0  0  0  0  0  0  0
   17.9467   70.1641   -8.4820 N   0  0  0  0  0  0  0  0  0  0  0  0
   19.2934   70.5206   -8.3355 C   0  0  0  0  0  0  0  0  0  0  0  0
   18.8112   70.6152   -5.9545 C   0  0  0  0  0  0  0  0  0  0  0  0
   17.5300   70.2759   -6.1111 C   0  0  0  0  0  0  0  0  0  0  0  0
   17.0108   70.0195   -7.4701 C   0  0  0  0  0  0  0  0  0  0  0  0
   17.6316   70.0004   -9.4005 H   0  0  0  0  0  0  0  0  0  0  0  0
   21.0294   72.1943   -0.8364 O   0  0  0  0  0  0  0  0  0  0  0  0
   21.8208   70.8390   -0.4492 P   0  0  2  0  0  0  0  0  0  0  0  0
   22.6930   70.5268   -1.7756 O   0  0  0  0  0  0  0  0  0  0  0  0
   20.9319   69.7106   -0.0127 O   0  0  0  0  0  0  0  0  0  0  0  0
   22.9060   71.3004    0.6529 O   0  0  0  0  0  0  0  0  0  0  0  0
   23.6399   73.5405    0.8974 O   0  0  0  0  0  0  0  0  0  0  0  0
   26.9576   71.5918    2.3964 O   0  0  0  0  0  0  0  0  0  0  0  0
   25.2052   72.9924    4.1896 O   0  0  0  0  0  0  0  0  0  0  0  0
   25.5407   70.4917    0.1244 O   0  0  0  0  0  0  0  0  0  0  0  0
   25.5623   71.7900    2.1530 C   0  0  1  0  0  0  0  0  0  0  0  0
   25.1528   73.1279    2.7721 C   0  0  1  0  0  0  0  0  0  0  0  0
   25.3145   71.7969    0.6457 C   0  0  2  0  0  0  0  0  0  0  0  0
   23.7423   73.5361    2.3262 C   0  0  1  0  0  0  0  0  0  0  0  0
   23.8976   72.2643    0.3083 C   0  0  1  0  0  0  0  0  0  0  0  0
   27.1216   71.5859    3.3517 H   0  0  0  0  0  0  0  0  0  0  0  0
   26.1010   72.7339    4.4580 H   0  0  0  0  0  0  0  0  0  0  0  0
   26.4410   70.2073    0.3444 H   0  0  0  0  0  0  0  0  0  0  0  0
   24.5594   75.6000    3.2102 O   0  0  0  0  0  0  0  0  0  0  0  0
   23.3751   74.9393    2.8040 C   0  0  0  0  0  0  0  0  0  0  0  0
   24.3411   76.4945    3.5165 H   0  0  0  0  0  0  0  0  0  0  0  0
 25 28  1  0
 25 24  1  0
 25 26  1  6
 25 27  2  0
  1  4  1  0
  1 24  1  0
  1  2  1  1
  1  3  2  0
  6 11  1  0
  6 12  1  0
 29 36  1  0
 29 37  1  0
  9  7  1  6
  7 13  1  0
 10  8  1  6
  8 14  1  0
 37 28  1  1
  4  5  1  0
 33 30  1  6
 30 38  1  0
 34 31  1  1
 31 39  1  0
 35 32  1  1
 32 40  1  0
 41 42  1  0
 41 43  1  0
 15 19  2  0
 16 22  2  0
 12 17  1  1
 17 19  1  0
 17 20  1  0
 18 19  1  0
 18 22  1  0
 18 23  1  0
  9 10  1  0
  9 11  1  0
 10 12  1  0
 11  5  1  6
 33 34  1  0
 33 35  1  0
 34 36  1  0
 35 37  1  0
 36 42  1  6
 20 21  2  0
 21 22  1  0
M  CHG  2   2  -1  26  -1
M  END
>  <COMPND>  (45) 
    8629 

>  <AUTHOR>  (45) 
    GENERATED BY OPEN BABEL 3.1.1

>  <MASTER>  (45) 
        0    0    0    0    0    0    0    0   58    0   58    0

>  <minimizedAffinity>  (45) 
-7.09159

>  <CNNscore>  (45) 
0.6552513838

>  <CNNaffinity>  (45) 
4.4010219574

>  <CNN_VS>  (45) 
2.8837757111

>  <CNNaffinity_variance>  (45) 
0.0756556615

$$$$
46
     RDKit          3D

 43 45  0  0  0  0  0  0  0  0999 V2000
   23.9992   71.4469   -2.4778 P   0  0  2  0  0  0  0  0  0  0  0  0
   23.5453   72.7626   -3.3026 O   0  0  0  0  0  0  0  0  0  0  0  0
   25.3565   70.9141   -2.8316 O   0  0  0  0  0  0  0  0  0  0  0  0
   22.7664   70.4183   -2.6784 O   0  0  0  0  0  0  0  0  0  0  0  0
   21.7280   70.7741   -3.5744 C   0  0  0  0  0  0  0  0  0  0  0  0
   19.4674   71.5786   -3.7028 O   0  0  0  0  0  0  0  0  0  0  0  0
   19.1828   70.6759   -0.8576 O   0  0  0  0  0  0  0  0  0  0  0  0
   17.9701   68.6646   -2.2435 O   0  0  0  0  0  0  0  0  0  0  0  0
   19.9206   70.0804   -1.9236 C   0  0  1  0  0  0  0  0  0  0  0  0
   18.9810   69.4028   -2.8991 C   0  0  2  0  0  0  0  0  0  0  0  0
   20.5063   71.2017   -2.7727 C   0  0  1  0  0  0  0  0  0  0  0  0
   18.4299   70.5847   -3.6784 C   0  0  2  0  0  0  0  0  0  0  0  0
   18.7994   69.9792   -0.3012 H   0  0  0  0  0  0  0  0  0  0  0  0
   18.3708   67.9240   -1.7622 H   0  0  0  0  0  0  0  0  0  0  0  0
   15.9771   69.4142   -4.4475 O   0  0  0  0  0  0  0  0  0  0  0  0
   17.2154   69.2954   -8.8853 O   0  0  0  0  0  0  0  0  0  0  0  0
   18.0846   70.2378   -5.0281 N   0  0  0  0  0  0  0  0  0  0  0  0
   16.5956   69.3562   -6.6566 N   0  0  0  0  0  0  0  0  0  0  0  0
   16.8272   69.6535   -5.3075 C   0  0  0  0  0  0  0  0  0  0  0  0
   18.9878   70.4777   -6.0580 C   0  0  0  0  0  0  0  0  0  0  0  0
   18.7521   70.1871   -7.3391 C   0  0  0  0  0  0  0  0  0  0  0  0
   17.4620   69.5744   -7.7160 C   0  0  0  0  0  0  0  0  0  0  0  0
   15.7263   68.9481   -6.8750 H   0  0  0  0  0  0  0  0  0  0  0  0
   23.8388   71.9102   -0.9375 O   0  0  0  0  0  0  0  0  0  0  0  0
   23.9988   71.0829    0.4420 P   0  0  2  0  0  0  0  0  0  0  0  0
   25.4997   70.4868    0.3452 O   0  0  0  0  0  0  0  0  0  0  0  0
   22.9346   70.0479    0.6658 O   0  0  0  0  0  0  0  0  0  0  0  0
   24.0830   72.2147    1.5896 O   0  0  0  0  0  0  0  0  0  0  0  0
   25.8030   72.2638    3.2192 O   0  0  0  0  0  0  0  0  0  0  0  0
   22.8604   74.2741    5.3050 O   0  0  0  0  0  0  0  0  0  0  0  0
   25.1180   75.7260    4.2836 O   0  0  0  0  0  0  0  0  0  0  0  0
   22.1580   72.0255    3.6228 O   0  0  0  0  0  0  0  0  0  0  0  0
   23.5993   73.8834    4.1445 C   0  0  1  0  0  0  0  0  0  0  0  0
   25.0573   74.3035    4.3404 C   0  0  1  0  0  0  0  0  0  0  0  0
   23.4945   72.3692    3.9723 C   0  0  2  0  0  0  0  0  0  0  0  0
   25.9609   73.6867    3.2642 C   0  0  1  0  0  0  0  0  0  0  0  0
   24.4693   71.8524    2.9128 C   0  0  1  0  0  0  0  0  0  0  0  0
   22.9225   75.2346    5.4198 H   0  0  0  0  0  0  0  0  0  0  0  0
   24.5428   76.1029    4.9678 H   0  0  0  0  0  0  0  0  0  0  0  0
   21.5507   72.3579    4.3014 H   0  0  0  0  0  0  0  0  0  0  0  0
   28.1961   72.8731    3.0387 O   0  0  0  0  0  0  0  0  0  0  0  0
   27.4389   73.9633    3.5310 C   0  0  0  0  0  0  0  0  0  0  0  0
   29.1390   73.0355    3.2014 H   0  0  0  0  0  0  0  0  0  0  0  0
 25 28  1  0
 25 24  1  0
 25 26  1  6
 25 27  2  0
  1  4  1  0
  1 24  1  0
  1  2  1  6
  1  3  2  0
  6 11  1  0
  6 12  1  0
 29 36  1  0
 29 37  1  0
  9  7  1  1
  7 13  1  0
 10  8  1  1
  8 14  1  0
 37 28  1  6
  4  5  1  0
 33 30  1  1
 30 38  1  0
 34 31  1  6
 31 39  1  0
 35 32  1  6
 32 40  1  0
 41 42  1  0
 41 43  1  0
 15 19  2  0
 16 22  2  0
 12 17  1  6
 17 19  1  0
 17 20  1  0
 18 19  1  0
 18 22  1  0
 18 23  1  0
  9 10  1  0
  9 11  1  0
 10 12  1  0
 11  5  1  6
 33 34  1  0
 33 35  1  0
 34 36  1  0
 35 37  1  0
 36 42  1  1
 20 21  2  0
 21 22  1  0
M  CHG  2   2  -1  26  -1
M  END
>  <COMPND>  (46) 
    8629 

>  <AUTHOR>  (46) 
    GENERATED BY OPEN BABEL 3.1.1

>  <MASTER>  (46) 
        0    0    0    0    0    0    0    0   58    0   58    0

>  <minimizedAffinity>  (46) 
-7.35299

>  <CNNscore>  (46) 
0.5085365176

>  <CNNaffinity>  (46) 
4.3322134018

>  <CNN_VS>  (46) 
2.2030887604

>  <CNNaffinity_variance>  (46) 
0.0210254304

$$$$
47
     RDKit          3D

 43 45  0  0  0  0  0  0  0  0999 V2000
   19.8119   76.0094   -4.3993 P   0  0  2  0  0  0  0  0  0  0  0  0
   19.7394   76.6528   -5.8819 O   0  0  0  0  0  0  0  0  0  0  0  0
   19.0845   76.7807   -3.3375 O   0  0  0  0  0  0  0  0  0  0  0  0
   21.3951   75.7898   -4.1482 O   0  0  0  0  0  0  0  0  0  0  0  0
   21.8897   75.8888   -2.8240 C   0  0  0  0  0  0  0  0  0  0  0  0
   23.7720   74.8678   -1.7339 O   0  0  0  0  0  0  0  0  0  0  0  0
   25.2770   75.3633   -4.2795 O   0  0  0  0  0  0  0  0  0  0  0  0
   24.6431   72.7178   -4.4692 O   0  0  0  0  0  0  0  0  0  0  0  0
   23.9084   75.0051   -4.0957 C   0  0  1  0  0  0  0  0  0  0  0  0
   23.7947   73.5473   -3.7018 C   0  0  2  0  0  0  0  0  0  0  0  0
   23.4019   75.7130   -2.8452 C   0  0  1  0  0  0  0  0  0  0  0  0
   24.1861   73.5860   -2.2343 C   0  0  2  0  0  0  0  0  0  0  0  0
   25.6225   74.9234   -5.0727 H   0  0  0  0  0  0  0  0  0  0  0  0
   24.3532   72.7264   -5.3947 H   0  0  0  0  0  0  0  0  0  0  0  0
   25.1793   70.9581   -1.9413 O   0  0  0  0  0  0  0  0  0  0  0  0
   21.6315   69.7187    0.7267 O   0  0  0  0  0  0  0  0  0  0  0  0
   23.5424   72.5563   -1.4684 N   0  0  0  0  0  0  0  0  0  0  0  0
   23.4121   70.3432   -0.6130 N   0  0  0  0  0  0  0  0  0  0  0  0
   24.1237   71.2695   -1.3860 C   0  0  0  0  0  0  0  0  0  0  0  0
   22.3484   72.8270   -0.8088 C   0  0  0  0  0  0  0  0  0  0  0  0
   21.6816   71.9323   -0.0767 C   0  0  0  0  0  0  0  0  0  0  0  0
   22.2211   70.5640    0.0605 C   0  0  0  0  0  0  0  0  0  0  0  0
   23.7978   69.4399   -0.5416 H   0  0  0  0  0  0  0  0  0  0  0  0
   19.2683   74.5046   -4.6292 O   0  0  0  0  0  0  0  0  0  0  0  0
   20.0322   73.1604   -5.1007 P   0  0  2  0  0  0  0  0  0  0  0  0
   20.4875   72.4829   -3.7039 O   0  0  0  0  0  0  0  0  0  0  0  0
   21.1551   73.3981   -6.0686 O   0  0  0  0  0  0  0  0  0  0  0  0
   18.8615   72.1990   -5.6576 O   0  0  0  0  0  0  0  0  0  0  0  0
   18.2367   69.9409   -5.3012 O   0  0  0  0  0  0  0  0  0  0  0  0
   17.8766   70.0842   -9.4123 O   0  0  0  0  0  0  0  0  0  0  0  0
   15.5127   69.9810   -7.7846 O   0  0  0  0  0  0  0  0  0  0  0  0
   20.0421   71.4896   -8.1026 O   0  0  0  0  0  0  0  0  0  0  0  0
   17.8048   70.5976   -8.0793 C   0  0  1  0  0  0  0  0  0  0  0  0
   16.8239   69.7333   -7.2847 C   0  0  1  0  0  0  0  0  0  0  0  0
   19.1959   70.5490   -7.4501 C   0  0  2  0  0  0  0  0  0  0  0  0
   16.8932   70.0526   -5.7853 C   0  0  1  0  0  0  0  0  0  0  0  0
   19.1465   70.8331   -5.9478 C   0  0  1  0  0  0  0  0  0  0  0  0
   16.9967   70.1127   -9.8177 H   0  0  0  0  0  0  0  0  0  0  0  0
   15.4826   69.7760   -8.7324 H   0  0  0  0  0  0  0  0  0  0  0  0
   20.0652   71.2989   -9.0528 H   0  0  0  0  0  0  0  0  0  0  0  0
   16.8267   68.6004   -3.8890 O   0  0  0  0  0  0  0  0  0  0  0  0
   16.0395   69.0952   -4.9566 C   0  0  0  0  0  0  0  0  0  0  0  0
   16.2962   67.9899   -3.3528 H   0  0  0  0  0  0  0  0  0  0  0  0
 25 28  1  0
 25 24  1  0
 25 26  1  1
 25 27  2  0
  1  4  1  0
  1 24  1  0
  1  2  1  6
  1  3  2  0
  6 11  1  0
  6 12  1  0
 29 36  1  0
 29 37  1  0
  9  7  1  1
  7 13  1  0
 10  8  1  6
  8 14  1  0
 37 28  1  6
  4  5  1  0
 33 30  1  6
 30 38  1  0
 34 31  1  6
 31 39  1  0
 35 32  1  6
 32 40  1  0
 41 42  1  0
 41 43  1  0
 15 19  2  0
 16 22  2  0
 12 17  1  1
 17 19  1  0
 17 20  1  0
 18 19  1  0
 18 22  1  0
 18 23  1  0
  9 10  1  0
  9 11  1  0
 10 12  1  0
 11  5  1  6
 33 34  1  0
 33 35  1  0
 34 36  1  0
 35 37  1  0
 36 42  1  1
 20 21  2  0
 21 22  1  0
M  CHG  2   2  -1  26  -1
M  END
>  <COMPND>  (47) 
    8629 

>  <AUTHOR>  (47) 
    GENERATED BY OPEN BABEL 3.1.1

>  <MASTER>  (47) 
        0    0    0    0    0    0    0    0   58    0   58    0

>  <minimizedAffinity>  (47) 
-6.72304

>  <CNNscore>  (47) 
0.5072271228

>  <CNNaffinity>  (47) 
4.3284239769

>  <CNN_VS>  (47) 
2.1954939365

>  <CNNaffinity_variance>  (47) 
0.3102060258

$$$$
48
     RDKit          3D

 43 45  0  0  0  0  0  0  0  0999 V2000
   19.4998   70.6978   -1.7454 P   0  0  2  0  0  0  0  0  0  0  0  0
   19.2257   72.1953   -1.1977 O   0  0  0  0  0  0  0  0  0  0  0  0
   18.2670   69.9042   -2.0644 O   0  0  0  0  0  0  0  0  0  0  0  0
   20.4834   70.0520   -0.6348 O   0  0  0  0  0  0  0  0  0  0  0  0
   21.1133   70.9162    0.2948 C   0  0  0  0  0  0  0  0  0  0  0  0
   23.2755   70.6476   -0.7183 O   0  0  0  0  0  0  0  0  0  0  0  0
   24.3519   70.4502    2.0733 O   0  0  0  0  0  0  0  0  0  0  0  0
   24.9508   73.0202    1.3857 O   0  0  0  0  0  0  0  0  0  0  0  0
   23.2874   71.2568    1.5718 C   0  0  1  0  0  0  0  0  0  0  0  0
   23.8391   72.4110    0.7613 C   0  0  2  0  0  0  0  0  0  0  0  0
   22.5463   70.4501    0.5128 C   0  0  1  0  0  0  0  0  0  0  0  0
   24.2037   71.7312   -0.5475 C   0  0  2  0  0  0  0  0  0  0  0  0
   24.8397   70.9441    2.7516 H   0  0  0  0  0  0  0  0  0  0  0  0
   24.6676   73.4387    2.2136 H   0  0  0  0  0  0  0  0  0  0  0  0
   25.1785   71.1485   -3.1337 O   0  0  0  0  0  0  0  0  0  0  0  0
   23.7459   75.2050   -4.7869 O   0  0  0  0  0  0  0  0  0  0  0  0
   24.0986   72.6169   -1.6726 N   0  0  0  0  0  0  0  0  0  0  0  0
   24.4642   73.1687   -3.9548 N   0  0  0  0  0  0  0  0  0  0  0  0
   24.6218   72.2289   -2.9281 C   0  0  0  0  0  0  0  0  0  0  0  0
   23.4819   73.8545   -1.5250 C   0  0  0  0  0  0  0  0  0  0  0  0
   23.3409   74.7399   -2.5137 C   0  0  0  0  0  0  0  0  0  0  0  0
   23.8601   74.4122   -3.8573 C   0  0  0  0  0  0  0  0  0  0  0  0
   24.8214   72.9203   -4.8383 H   0  0  0  0  0  0  0  0  0  0  0  0
   20.4847   70.9453   -3.0030 O   0  0  0  0  0  0  0  0  0  0  0  0
   20.4817   72.0898   -4.1446 P   0  0  2  0  0  0  0  0  0  0  0  0
   21.8478   71.8018   -4.9622 O   0  0  0  0  0  0  0  0  0  0  0  0
   20.3612   73.4887   -3.6131 O   0  0  0  0  0  0  0  0  0  0  0  0
   19.3017   71.6546   -5.1562 O   0  0  0  0  0  0  0  0  0  0  0  0
   18.1000   69.6120   -5.1467 O   0  0  0  0  0  0  0  0  0  0  0  0
   18.0175   70.4074   -9.1979 O   0  0  0  0  0  0  0  0  0  0  0  0
   15.6196   70.7043   -7.6455 O   0  0  0  0  0  0  0  0  0  0  0  0
   20.3948   71.0034   -7.6574 O   0  0  0  0  0  0  0  0  0  0  0  0
   18.0059   70.7337   -7.8055 C   0  0  1  0  0  0  0  0  0  0  0  0
   16.7935   70.0558   -7.1641 C   0  0  1  0  0  0  0  0  0  0  0  0
   19.3008   70.2368   -7.1655 C   0  0  2  0  0  0  0  0  0  0  0  0
   16.8591   70.1369   -5.6330 C   0  0  1  0  0  0  0  0  0  0  0  0
   19.2426   70.3149   -5.6388 C   0  0  1  0  0  0  0  0  0  0  0  0
   17.1982   70.7206   -9.6103 H   0  0  0  0  0  0  0  0  0  0  0  0
   15.5906   70.6464   -8.6135 H   0  0  0  0  0  0  0  0  0  0  0  0
   20.4209   70.9455   -8.6248 H   0  0  0  0  0  0  0  0  0  0  0  0
   16.2510   68.7580   -3.7788 O   0  0  0  0  0  0  0  0  0  0  0  0
   15.7437   69.3320   -4.9694 C   0  0  0  0  0  0  0  0  0  0  0  0
   15.5519   68.2430   -3.3455 H   0  0  0  0  0  0  0  0  0  0  0  0
 25 28  1  0
 25 24  1  0
 25 26  1  6
 25 27  2  0
  1  4  1  0
  1 24  1  0
  1  2  1  1
  1  3  2  0
  6 11  1  0
  6 12  1  0
 29 36  1  0
 29 37  1  0
  9  7  1  6
  7 13  1  0
 10  8  1  1
  8 14  1  0
 37 28  1  6
  4  5  1  0
 33 30  1  6
 30 38  1  0
 34 31  1  6
 31 39  1  0
 35 32  1  6
 32 40  1  0
 41 42  1  0
 41 43  1  0
 15 19  2  0
 16 22  2  0
 12 17  1  6
 17 19  1  0
 17 20  1  0
 18 19  1  0
 18 22  1  0
 18 23  1  0
  9 10  1  0
  9 11  1  0
 10 12  1  0
 11  5  1  6
 33 34  1  0
 33 35  1  0
 34 36  1  0
 35 37  1  0
 36 42  1  1
 20 21  2  0
 21 22  1  0
M  CHG  2   2  -1  26  -1
M  END
>  <COMPND>  (48) 
    8629 

>  <AUTHOR>  (48) 
    GENERATED BY OPEN BABEL 3.1.1

>  <MASTER>  (48) 
        0    0    0    0    0    0    0    0   58    0   58    0

>  <minimizedAffinity>  (48) 
-7.49180

>  <CNNscore>  (48) 
0.4884742796

>  <CNNaffinity>  (48) 
4.2531394958

>  <CNN_VS>  (48) 
2.0775492191

>  <CNNaffinity_variance>  (48) 
0.4296660423

$$$$
49
     RDKit          3D

 43 45  0  0  0  0  0  0  0  0999 V2000
   19.8376   71.5054   -1.2548 P   0  0  2  0  0  0  0  0  0  0  0  0
   20.2210   70.0151   -0.7555 O   0  0  0  0  0  0  0  0  0  0  0  0
   19.4480   72.4588   -0.1636 O   0  0  0  0  0  0  0  0  0  0  0  0
   18.7233   71.2563   -2.4012 O   0  0  0  0  0  0  0  0  0  0  0  0
   17.5846   72.0991   -2.4318 C   0  0  0  0  0  0  0  0  0  0  0  0
   16.6520   71.7892   -4.6245 O   0  0  0  0  0  0  0  0  0  0  0  0
   15.2654   69.3846   -3.4905 O   0  0  0  0  0  0  0  0  0  0  0  0
   17.3727   68.2816   -4.8244 O   0  0  0  0  0  0  0  0  0  0  0  0
   16.5639   69.8984   -3.1987 C   0  0  1  0  0  0  0  0  0  0  0  0
   17.5156   69.6008   -4.3385 C   0  0  2  0  0  0  0  0  0  0  0  0
   16.4863   71.4195   -3.2380 C   0  0  1  0  0  0  0  0  0  0  0  0
   17.1161   70.6480   -5.3641 C   0  0  2  0  0  0  0  0  0  0  0  0
   15.2898   68.4145   -3.4708 H   0  0  0  0  0  0  0  0  0  0  0  0
   17.6391   67.6526   -4.1357 H   0  0  0  0  0  0  0  0  0  0  0  0
   17.8559   69.3518   -7.7622 O   0  0  0  0  0  0  0  0  0  0  0  0
   21.3543   72.2667   -8.4732 O   0  0  0  0  0  0  0  0  0  0  0  0
   18.2159   71.0474   -6.1961 N   0  0  0  0  0  0  0  0  0  0  0  0
   19.5971   70.8044   -8.1144 N   0  0  0  0  0  0  0  0  0  0  0  0
   18.5038   70.3283   -7.3795 C   0  0  0  0  0  0  0  0  0  0  0  0
   18.9957   72.1411   -5.8361 C   0  0  0  0  0  0  0  0  0  0  0  0
   20.0357   72.5816   -6.5471 C   0  0  0  0  0  0  0  0  0  0  0  0
   20.4034   71.8861   -7.7974 C   0  0  0  0  0  0  0  0  0  0  0  0
   19.8166   70.3188   -8.9425 H   0  0  0  0  0  0  0  0  0  0  0  0
   21.1392   71.9504   -2.1039 O   0  0  0  0  0  0  0  0  0  0  0  0
   22.7167   71.8050   -1.7827 P   0  0  2  0  0  0  0  0  0  0  0  0
   23.3607   73.1113   -2.4873 O   0  0  0  0  0  0  0  0  0  0  0  0
   23.3175   70.5026   -2.2263 O   0  0  0  0  0  0  0  0  0  0  0  0
   22.8396   72.0935   -0.1995 O   0  0  0  0  0  0  0  0  0  0  0  0
   24.6175   70.9135    0.8317 O   0  0  0  0  0  0  0  0  0  0  0  0
   22.6468   72.2257    4.2147 O   0  0  0  0  0  0  0  0  0  0  0  0
   25.1532   73.4203    3.4808 O   0  0  0  0  0  0  0  0  0  0  0  0
   21.1313   71.3637    1.9039 O   0  0  0  0  0  0  0  0  0  0  0  0
   23.1242   72.3113    2.8693 C   0  0  1  0  0  0  0  0  0  0  0  0
   24.6513   72.2219    2.8958 C   0  0  1  0  0  0  0  0  0  0  0  0
   22.5323   71.1619    2.0556 C   0  0  2  0  0  0  0  0  0  0  0  0
   25.2200   72.0384    1.4823 C   0  0  1  0  0  0  0  0  0  0  0  0
   23.2014   71.0367    0.6857 C   0  0  1  0  0  0  0  0  0  0  0  0
   23.0185   72.9530    4.7367 H   0  0  0  0  0  0  0  0  0  0  0  0
   24.7861   73.5245    4.3727 H   0  0  0  0  0  0  0  0  0  0  0  0
   20.7194   71.4411    2.7781 H   0  0  0  0  0  0  0  0  0  0  0  0
   27.1254   71.5408    2.8353 O   0  0  0  0  0  0  0  0  0  0  0  0
   26.7266   71.7893    1.4998 C   0  0  0  0  0  0  0  0  0  0  0  0
   28.0821   71.3802    2.8618 H   0  0  0  0  0  0  0  0  0  0  0  0
 25 28  1  0
 25 24  1  0
 25 26  1  6
 25 27  2  0
  1  4  1  0
  1 24  1  0
  1  2  1  1
  1  3  2  0
  6 11  1  0
  6 12  1  0
 29 36  1  0
 29 37  1  0
  9  7  1  6
  7 13  1  0
 10  8  1  6
  8 14  1  0
 37 28  1  6
  4  5  1  0
 33 30  1  1
 30 38  1  0
 34 31  1  6
 31 39  1  0
 35 32  1  6
 32 40  1  0
 41 42  1  0
 41 43  1  0
 15 19  2  0
 16 22  2  0
 12 17  1  1
 17 19  1  0
 17 20  1  0
 18 19  1  0
 18 22  1  0
 18 23  1  0
  9 10  1  0
  9 11  1  0
 10 12  1  0
 11  5  1  1
 33 34  1  0
 33 35  1  0
 34 36  1  0
 35 37  1  0
 36 42  1  1
 20 21  2  0
 21 22  1  0
M  CHG  2   2  -1  26  -1
M  END
>  <COMPND>  (49) 
    8629 

>  <AUTHOR>  (49) 
    GENERATED BY OPEN BABEL 3.1.1

>  <MASTER>  (49) 
        0    0    0    0    0    0    0    0   58    0   58    0

>  <minimizedAffinity>  (49) 
-6.59834

>  <CNNscore>  (49) 
0.4684184492

>  <CNNaffinity>  (49) 
4.3312864304

>  <CNN_VS>  (49) 
2.0288543701

>  <CNNaffinity_variance>  (49) 
0.0117681678

$$$$
50
     RDKit          3D

 43 45  0  0  0  0  0  0  0  0999 V2000
   18.0763   70.0346   -2.2913 P   0  0  2  0  0  0  0  0  0  0  0  0
   17.4672   68.6031   -1.8472 O   0  0  0  0  0  0  0  0  0  0  0  0
   17.4624   71.2230   -1.6115 O   0  0  0  0  0  0  0  0  0  0  0  0
   17.9719   70.0171   -3.9058 O   0  0  0  0  0  0  0  0  0  0  0  0
   16.9798   69.2059   -4.5104 C   0  0  0  0  0  0  0  0  0  0  0  0
   16.9626   71.2577   -5.7609 O   0  0  0  0  0  0  0  0  0  0  0  0
   15.0380   69.8948   -7.6126 O   0  0  0  0  0  0  0  0  0  0  0  0
   17.3955   69.7202   -8.9720 O   0  0  0  0  0  0  0  0  0  0  0  0
   16.1561   69.3506   -6.9133 C   0  0  1  0  0  0  0  0  0  0  0  0
   17.4498   69.7965   -7.5621 C   0  0  2  0  0  0  0  0  0  0  0  0
   16.2330   70.0289   -5.5512 C   0  0  1  0  0  0  0  0  0  0  0  0
   17.5792   71.2240   -7.0584 C   0  0  2  0  0  0  0  0  0  0  0  0
   14.9681   69.4766   -8.4856 H   0  0  0  0  0  0  0  0  0  0  0  0
   17.3134   68.7925   -9.2428 H   0  0  0  0  0  0  0  0  0  0  0  0
   18.4015   73.8759   -6.5396 O   0  0  0  0  0  0  0  0  0  0  0  0
   22.8577   72.7016   -6.6078 O   0  0  0  0  0  0  0  0  0  0  0  0
   18.9480   71.6394   -6.9352 N   0  0  0  0  0  0  0  0  0  0  0  0
   20.6197   73.2890   -6.5738 N   0  0  0  0  0  0  0  0  0  0  0  0
   19.2538   72.9956   -6.6748 C   0  0  0  0  0  0  0  0  0  0  0  0
   19.9702   70.7066   -7.0719 C   0  0  0  0  0  0  0  0  0  0  0  0
   21.2679   71.0028   -6.9741 C   0  0  0  0  0  0  0  0  0  0  0  0
   21.6727   72.3974   -6.7033 C   0  0  0  0  0  0  0  0  0  0  0  0
   20.8566   74.2276   -6.3931 H   0  0  0  0  0  0  0  0  0  0  0  0
   19.6607   69.8530   -2.0277 O   0  0  0  0  0  0  0  0  0  0  0  0
   20.9210   70.7665   -2.4637 P   0  0  2  0  0  0  0  0  0  0  0  0
   20.2592   72.2240   -2.6985 O   0  0  0  0  0  0  0  0  0  0  0  0
   21.6866   70.2370   -3.6416 O   0  0  0  0  0  0  0  0  0  0  0  0
   21.7944   70.9277   -1.1161 O   0  0  0  0  0  0  0  0  0  0  0  0
   22.5514   72.7248    0.2308 O   0  0  0  0  0  0  0  0  0  0  0  0
   26.0728   70.5876   -0.0579 O   0  0  0  0  0  0  0  0  0  0  0  0
   24.6276   70.6107    2.4238 O   0  0  0  0  0  0  0  0  0  0  0  0
   24.3122   70.7858   -2.3471 O   0  0  0  0  0  0  0  0  0  0  0  0
   24.6559   70.7577    0.0367 C   0  0  1  0  0  0  0  0  0  0  0  0
   24.3474   71.4943    1.3417 C   0  0  1  0  0  0  0  0  0  0  0  0
   24.1689   71.5656   -1.1648 C   0  0  2  0  0  0  0  0  0  0  0  0
   22.8823   71.9486    1.3883 C   0  0  1  0  0  0  0  0  0  0  0  0
   22.7148   72.0092   -0.9952 C   0  0  1  0  0  0  0  0  0  0  0  0
   26.3884   70.0750    0.7018 H   0  0  0  0  0  0  0  0  0  0  0  0
   25.5556   70.3310    2.3824 H   0  0  0  0  0  0  0  0  0  0  0  0
   25.2371   70.5115   -2.4433 H   0  0  0  0  0  0  0  0  0  0  0  0
   22.3440   71.9755    3.7161 O   0  0  0  0  0  0  0  0  0  0  0  0
   22.5925   72.8208    2.6079 C   0  0  0  0  0  0  0  0  0  0  0  0
   22.1583   72.5169    4.4997 H   0  0  0  0  0  0  0  0  0  0  0  0
 25 28  1  0
 25 24  1  0
 25 26  1  6
 25 27  2  0
  1  4  1  0
  1 24  1  0
  1  2  1  1
  1  3  2  0
  6 11  1  0
  6 12  1  0
 29 36  1  0
 29 37  1  0
  9  7  1  6
  7 13  1  0
 10  8  1  6
  8 14  1  0
 37 28  1  1
  4  5  1  0
 33 30  1  6
 30 38  1  0
 34 31  1  1
 31 39  1  0
 35 32  1  6
 32 40  1  0
 41 42  1  0
 41 43  1  0
 15 19  2  0
 16 22  2  0
 12 17  1  1
 17 19  1  0
 17 20  1  0
 18 19  1  0
 18 22  1  0
 18 23  1  0
  9 10  1  0
  9 11  1  0
 10 12  1  0
 11  5  1  1
 33 34  1  0
 33 35  1  0
 34 36  1  0
 35 37  1  0
 36 42  1  1
 20 21  2  0
 21 22  1  0
M  CHG  2   2  -1  26  -1
M  END
>  <COMPND>  (50) 
    8629 

>  <AUTHOR>  (50) 
    GENERATED BY OPEN BABEL 3.1.1

>  <MASTER>  (50) 
        0    0    0    0    0    0    0    0   58    0   58    0

>  <minimizedAffinity>  (50) 
-7.90203

>  <CNNscore>  (50) 
0.4392363131

>  <CNNaffinity>  (50) 
4.2346792221

>  <CNN_VS>  (50) 
1.8600249290

>  <CNNaffinity_variance>  (50) 
0.6756716967

$$$$
51
     RDKit          3D

 43 45  0  0  0  0  0  0  0  0999 V2000
   20.0094   70.4924   -1.4442 P   0  0  2  0  0  0  0  0  0  0  0  0
   19.8658   71.8582   -0.5889 O   0  0  0  0  0  0  0  0  0  0  0  0
   18.8009   69.6033   -1.4263 O   0  0  0  0  0  0  0  0  0  0  0  0
   21.3777   69.8296   -0.8908 O   0  0  0  0  0  0  0  0  0  0  0  0
   21.9860   70.3939    0.2578 C   0  0  0  0  0  0  0  0  0  0  0  0
   23.7679   70.8867   -1.2771 O   0  0  0  0  0  0  0  0  0  0  0  0
   25.5668   70.9427    1.1212 O   0  0  0  0  0  0  0  0  0  0  0  0
   25.1441   73.5922    0.6333 O   0  0  0  0  0  0  0  0  0  0  0  0
   24.2131   71.3760    0.9985 C   0  0  1  0  0  0  0  0  0  0  0  0
   24.1456   72.6781    0.2279 C   0  0  2  0  0  0  0  0  0  0  0  0
   23.4955   70.4136    0.0603 C   0  0  1  0  0  0  0  0  0  0  0  0
   24.3314   72.2065   -1.2043 C   0  0  2  0  0  0  0  0  0  0  0  0
   26.0452   71.5419    1.7161 H   0  0  0  0  0  0  0  0  0  0  0  0
   24.9821   73.8623    1.5506 H   0  0  0  0  0  0  0  0  0  0  0  0
   25.0389   72.4261   -3.9300 O   0  0  0  0  0  0  0  0  0  0  0  0
   21.6889   75.4854   -4.7421 O   0  0  0  0  0  0  0  0  0  0  0  0
   23.6608   73.0526   -2.1508 N   0  0  0  0  0  0  0  0  0  0  0  0
   23.3702   73.9491   -4.3322 N   0  0  0  0  0  0  0  0  0  0  0  0
   24.0955   73.0906   -3.4962 C   0  0  0  0  0  0  0  0  0  0  0  0
   22.5847   73.8329   -1.7421 C   0  0  0  0  0  0  0  0  0  0  0  0
   21.9044   74.6474   -2.5514 C   0  0  0  0  0  0  0  0  0  0  0  0
   22.2944   74.7456   -3.9728 C   0  0  0  0  0  0  0  0  0  0  0  0
   23.6553   73.9922   -5.2738 H   0  0  0  0  0  0  0  0  0  0  0  0
   20.4311   71.0249   -2.9111 O   0  0  0  0  0  0  0  0  0  0  0  0
   19.6083   71.8840   -4.0056 P   0  0  2  0  0  0  0  0  0  0  0  0
   20.6778   72.0801   -5.2036 O   0  0  0  0  0  0  0  0  0  0  0  0
   19.0308   73.1643   -3.4753 O   0  0  0  0  0  0  0  0  0  0  0  0
   18.5171   70.8529   -4.5980 O   0  0  0  0  0  0  0  0  0  0  0  0
   16.5032   71.9606   -5.1757 O   0  0  0  0  0  0  0  0  0  0  0  0
   15.2519   68.0491   -5.6067 O   0  0  0  0  0  0  0  0  0  0  0  0
   15.6748   69.6680   -7.9409 O   0  0  0  0  0  0  0  0  0  0  0  0
   17.0406   68.7631   -3.4456 O   0  0  0  0  0  0  0  0  0  0  0  0
   16.1827   69.1334   -5.6656 C   0  0  1  0  0  0  0  0  0  0  0  0
   15.6246   70.1933   -6.6173 C   0  0  1  0  0  0  0  0  0  0  0  0
   16.3644   69.7119   -4.2636 C   0  0  2  0  0  0  0  0  0  0  0  0
   16.4302   71.4965   -6.5288 C   0  0  1  0  0  0  0  0  0  0  0  0
   17.1365   71.0322   -4.2931 C   0  0  1  0  0  0  0  0  0  0  0  0
   15.1323   67.6770   -6.4936 H   0  0  0  0  0  0  0  0  0  0  0  0
   15.1627   68.8450   -7.9830 H   0  0  0  0  0  0  0  0  0  0  0  0
   16.5418   67.9319   -3.4349 H   0  0  0  0  0  0  0  0  0  0  0  0
   14.5787   72.1430   -7.8938 O   0  0  0  0  0  0  0  0  0  0  0  0
   15.7974   72.6170   -7.3511 C   0  0  0  0  0  0  0  0  0  0  0  0
   14.1645   72.8457   -8.4195 H   0  0  0  0  0  0  0  0  0  0  0  0
 25 28  1  0
 25 24  1  0
 25 26  1  6
 25 27  2  0
  1  4  1  0
  1 24  1  0
  1  2  1  1
  1  3  2  0
  6 11  1  0
  6 12  1  0
 29 36  1  0
 29 37  1  0
  9  7  1  6
  7 13  1  0
 10  8  1  1
  8 14  1  0
 37 28  1  6
  4  5  1  0
 33 30  1  1
 30 38  1  0
 34 31  1  6
 31 39  1  0
 35 32  1  1
 32 40  1  0
 41 42  1  0
 41 43  1  0
 15 19  2  0
 16 22  2  0
 12 17  1  6
 17 19  1  0
 17 20  1  0
 18 19  1  0
 18 22  1  0
 18 23  1  0
  9 10  1  0
  9 11  1  0
 10 12  1  0
 11  5  1  1
 33 34  1  0
 33 35  1  0
 34 36  1  0
 35 37  1  0
 36 42  1  6
 20 21  2  0
 21 22  1  0
M  CHG  2   2  -1  26  -1
M  END
>  <COMPND>  (51) 
    8629 

>  <AUTHOR>  (51) 
    GENERATED BY OPEN BABEL 3.1.1

>  <MASTER>  (51) 
        0    0    0    0    0    0    0    0   58    0   58    0

>  <minimizedAffinity>  (51) 
-7.25533

>  <CNNscore>  (51) 
0.4194422066

>  <CNNaffinity>  (51) 
3.8863682747

>  <CNN_VS>  (51) 
1.6301069260

>  <CNNaffinity_variance>  (51) 
0.5847110748

$$$$
52
     RDKit          3D

 43 45  0  0  0  0  0  0  0  0999 V2000
   24.1130   72.0882   -3.0678 P   0  0  2  0  0  0  0  0  0  0  0  0
   25.1659   70.8671   -2.9339 O   0  0  0  0  0  0  0  0  0  0  0  0
   24.5843   73.2428   -3.9023 O   0  0  0  0  0  0  0  0  0  0  0  0
   23.7285   72.4393   -1.5359 O   0  0  0  0  0  0  0  0  0  0  0  0
   24.6615   72.1273   -0.5161 C   0  0  0  0  0  0  0  0  0  0  0  0
   24.8542   70.9266    1.5564 O   0  0  0  0  0  0  0  0  0  0  0  0
   22.1241   69.8377    0.9632 O   0  0  0  0  0  0  0  0  0  0  0  0
   21.5984   71.8035    2.7787 O   0  0  0  0  0  0  0  0  0  0  0  0
   22.6564   71.1338    0.6946 C   0  0  1  0  0  0  0  0  0  0  0  0
   22.7522   71.9384    1.9741 C   0  0  2  0  0  0  0  0  0  0  0  0
   24.1220   70.9691    0.3120 C   0  0  1  0  0  0  0  0  0  0  0  0
   23.9915   71.3484    2.6253 C   0  0  2  0  0  0  0  0  0  0  0  0
   21.1887   69.9172    1.2095 H   0  0  0  0  0  0  0  0  0  0  0  0
   20.8375   72.1937    2.3212 H   0  0  0  0  0  0  0  0  0  0  0  0
   23.1181   72.2219    5.1655 O   0  0  0  0  0  0  0  0  0  0  0  0
   26.7506   75.0156    5.6564 O   0  0  0  0  0  0  0  0  0  0  0  0
   24.6898   72.3031    3.4391 N   0  0  0  0  0  0  0  0  0  0  0  0
   24.9276   73.6121    5.4079 N   0  0  0  0  0  0  0  0  0  0  0  0
   24.1655   72.6748    4.6990 C   0  0  0  0  0  0  0  0  0  0  0  0
   25.8809   72.8600    2.9862 C   0  0  0  0  0  0  0  0  0  0  0  0
   26.5950   73.7536    3.6739 C   0  0  0  0  0  0  0  0  0  0  0  0
   26.1167   74.1954    4.9998 C   0  0  0  0  0  0  0  0  0  0  0  0
   24.5816   73.8863    6.2882 H   0  0  0  0  0  0  0  0  0  0  0  0
   22.7796   71.3597   -3.6192 O   0  0  0  0  0  0  0  0  0  0  0  0
   21.4231   71.9677   -4.2543 P   0  0  2  0  0  0  0  0  0  0  0  0
   21.5837   71.6616   -5.8348 O   0  0  0  0  0  0  0  0  0  0  0  0
   21.1831   73.4125   -3.9246 O   0  0  0  0  0  0  0  0  0  0  0  0
   20.2570   70.9666   -3.7616 O   0  0  0  0  0  0  0  0  0  0  0  0
   18.0937   71.9335   -3.7186 O   0  0  0  0  0  0  0  0  0  0  0  0
   17.3301   68.5112   -1.5379 O   0  0  0  0  0  0  0  0  0  0  0  0
   16.3208   68.7402   -4.2168 O   0  0  0  0  0  0  0  0  0  0  0  0
   19.8399   69.9122   -1.1946 O   0  0  0  0  0  0  0  0  0  0  0  0
   17.9548   69.2927   -2.5599 C   0  0  1  0  0  0  0  0  0  0  0  0
   16.8625   69.8352   -3.4837 C   0  0  1  0  0  0  0  0  0  0  0  0
   18.7273   70.4389   -1.9097 C   0  0  2  0  0  0  0  0  0  0  0  0
   17.4233   70.8947   -4.4419 C   0  0  1  0  0  0  0  0  0  0  0  0
   19.1986   71.4614   -2.9453 C   0  0  1  0  0  0  0  0  0  0  0  0
   16.8383   67.7813   -1.9440 H   0  0  0  0  0  0  0  0  0  0  0  0
   15.9705   68.0782   -3.6001 H   0  0  0  0  0  0  0  0  0  0  0  0
   19.5283   69.2664   -0.5420 H   0  0  0  0  0  0  0  0  0  0  0  0
   15.8168   70.6170   -6.1886 O   0  0  0  0  0  0  0  0  0  0  0  0
   16.3229   71.5621   -5.2639 C   0  0  0  0  0  0  0  0  0  0  0  0
   15.1152   71.0278   -6.7186 H   0  0  0  0  0  0  0  0  0  0  0  0
 25 28  1  0
 25 24  1  0
 25 26  1  6
 25 27  2  0
  1  4  1  0
  1 24  1  0
  1  2  1  1
  1  3  2  0
  6 11  1  0
  6 12  1  0
 29 36  1  0
 29 37  1  0
  9  7  1  1
  7 13  1  0
 10  8  1  1
  8 14  1  0
 37 28  1  6
  4  5  1  0
 33 30  1  1
 30 38  1  0
 34 31  1  6
 31 39  1  0
 35 32  1  6
 32 40  1  0
 41 42  1  0
 41 43  1  0
 15 19  2  0
 16 22  2  0
 12 17  1  6
 17 19  1  0
 17 20  1  0
 18 19  1  0
 18 22  1  0
 18 23  1  0
  9 10  1  0
  9 11  1  0
 10 12  1  0
 11  5  1  6
 33 34  1  0
 33 35  1  0
 34 36  1  0
 35 37  1  0
 36 42  1  1
 20 21  2  0
 21 22  1  0
M  CHG  2   2  -1  26  -1
M  END
>  <COMPND>  (52) 
    8629 

>  <AUTHOR>  (52) 
    GENERATED BY OPEN BABEL 3.1.1

>  <MASTER>  (52) 
        0    0    0    0    0    0    0    0   58    0   58    0

>  <minimizedAffinity>  (52) 
-7.83507

>  <CNNscore>  (52) 
0.4191274047

>  <CNNaffinity>  (52) 
4.1083731651

>  <CNN_VS>  (52) 
1.7219318151

>  <CNNaffinity_variance>  (52) 
0.3273397088

$$$$
53
     RDKit          3D

 43 45  0  0  0  0  0  0  0  0999 V2000
   22.8975   73.3442   -4.9345 P   0  0  2  0  0  0  0  0  0  0  0  0
   23.0135   74.9566   -4.8700 O   0  0  0  0  0  0  0  0  0  0  0  0
   23.7175   72.6922   -6.0087 O   0  0  0  0  0  0  0  0  0  0  0  0
   21.3041   73.0719   -5.0041 O   0  0  0  0  0  0  0  0  0  0  0  0
   20.7499   72.6088   -6.2232 C   0  0  0  0  0  0  0  0  0  0  0  0
   19.7457   70.6403   -5.2797 O   0  0  0  0  0  0  0  0  0  0  0  0
   20.8924   69.1603   -7.6217 O   0  0  0  0  0  0  0  0  0  0  0  0
   18.2828   69.4846   -8.3435 O   0  0  0  0  0  0  0  0  0  0  0  0
   20.3584   70.4819   -7.5634 C   0  0  1  0  0  0  0  0  0  0  0  0
   18.8479   70.4347   -7.4633 C   0  0  2  0  0  0  0  0  0  0  0  0
   20.7474   71.0863   -6.2199 C   0  0  1  0  0  0  0  0  0  0  0  0
   18.6400   70.0743   -6.0022 C   0  0  2  0  0  0  0  0  0  0  0  0
   20.6572   68.7539   -8.4711 H   0  0  0  0  0  0  0  0  0  0  0  0
   18.4414   69.7585   -9.2603 H   0  0  0  0  0  0  0  0  0  0  0  0
   16.7624   68.5858   -4.5066 O   0  0  0  0  0  0  0  0  0  0  0  0
   13.9786   72.2281   -4.0320 O   0  0  0  0  0  0  0  0  0  0  0  0
   17.4161   70.6086   -5.4751 N   0  0  0  0  0  0  0  0  0  0  0  0
   15.3779   70.4006   -4.2713 N   0  0  0  0  0  0  0  0  0  0  0  0
   16.5416   69.7763   -4.7383 C   0  0  0  0  0  0  0  0  0  0  0  0
   17.0935   71.9441   -5.6902 C   0  0  0  0  0  0  0  0  0  0  0  0
   15.9792   72.5240   -5.2393 C   0  0  0  0  0  0  0  0  0  0  0  0
   15.0122   71.7240   -4.4602 C   0  0  0  0  0  0  0  0  0  0  0  0
   14.7536   69.8402   -3.7558 H   0  0  0  0  0  0  0  0  0  0  0  0
   23.2779   72.8920   -3.4299 O   0  0  0  0  0  0  0  0  0  0  0  0
   23.4344   71.4247   -2.7700 P   0  0  2  0  0  0  0  0  0  0  0  0
   25.0159   71.1177   -2.9186 O   0  0  0  0  0  0  0  0  0  0  0  0
   22.5413   70.3799   -3.3739 O   0  0  0  0  0  0  0  0  0  0  0  0
   23.2120   71.6619   -1.1891 O   0  0  0  0  0  0  0  0  0  0  0  0
   23.6480   73.5132    0.2250 O   0  0  0  0  0  0  0  0  0  0  0  0
   24.8186   70.4635    2.7508 O   0  0  0  0  0  0  0  0  0  0  0  0
   22.3740   71.8774    3.2729 O   0  0  0  0  0  0  0  0  0  0  0  0
   25.3986   70.2963   -0.0803 O   0  0  0  0  0  0  0  0  0  0  0  0
   24.0237   71.0812    1.7350 C   0  0  1  0  0  0  0  0  0  0  0  0
   23.3533   72.3180    2.3364 C   0  0  1  0  0  0  0  0  0  0  0  0
   24.9248   71.4732    0.5655 C   0  0  2  0  0  0  0  0  0  0  0  0
   22.7012   73.1797    1.2468 C   0  0  1  0  0  0  0  0  0  0  0  0
   24.1934   72.3694   -0.4355 C   0  0  1  0  0  0  0  0  0  0  0  0
   24.2524   70.2117    3.4961 H   0  0  0  0  0  0  0  0  0  0  0  0
   22.7987   71.3340    3.9552 H   0  0  0  0  0  0  0  0  0  0  0  0
   25.8599   69.7376    0.5638 H   0  0  0  0  0  0  0  0  0  0  0  0
   22.7412   74.7138    3.0781 O   0  0  0  0  0  0  0  0  0  0  0  0
   22.1639   74.4961    1.8039 C   0  0  0  0  0  0  0  0  0  0  0  0
   22.4086   75.5484    3.4448 H   0  0  0  0  0  0  0  0  0  0  0  0
 25 28  1  0
 25 24  1  0
 25 26  1  1
 25 27  2  0
  1  4  1  0
  1 24  1  0
  1  2  1  1
  1  3  2  0
  6 11  1  0
  6 12  1  0
 29 36  1  0
 29 37  1  0
  9  7  1  1
  7 13  1  0
 10  8  1  6
  8 14  1  0
 37 28  1  1
  4  5  1  0
 33 30  1  1
 30 38  1  0
 34 31  1  1
 31 39  1  0
 35 32  1  6
 32 40  1  0
 41 42  1  0
 41 43  1  0
 15 19  2  0
 16 22  2  0
 12 17  1  1
 17 19  1  0
 17 20  1  0
 18 19  1  0
 18 22  1  0
 18 23  1  0
  9 10  1  0
  9 11  1  0
 10 12  1  0
 11  5  1  6
 33 34  1  0
 33 35  1  0
 34 36  1  0
 35 37  1  0
 36 42  1  1
 20 21  2  0
 21 22  1  0
M  CHG  2   2  -1  26  -1
M  END
>  <COMPND>  (53) 
    8629 

>  <AUTHOR>  (53) 
    GENERATED BY OPEN BABEL 3.1.1

>  <MASTER>  (53) 
        0    0    0    0    0    0    0    0   58    0   58    0

>  <minimizedAffinity>  (53) 
-7.51542

>  <CNNscore>  (53) 
0.4158501625

>  <CNNaffinity>  (53) 
4.3447890282

>  <CNN_VS>  (53) 
1.8067811728

>  <CNNaffinity_variance>  (53) 
0.0957001075

$$$$
54
     RDKit          3D

 43 45  0  0  0  0  0  0  0  0999 V2000
   18.8691   73.5086   -1.0989 P   0  0  2  0  0  0  0  0  0  0  0  0
   18.3729   75.0197   -1.3955 O   0  0  0  0  0  0  0  0  0  0  0  0
   18.1116   72.7932   -0.0191 O   0  0  0  0  0  0  0  0  0  0  0  0
   20.4612   73.6632   -0.8560 O   0  0  0  0  0  0  0  0  0  0  0  0
   21.1234   72.6866   -0.0714 C   0  0  0  0  0  0  0  0  0  0  0  0
   23.4477   73.1789    0.2882 O   0  0  0  0  0  0  0  0  0  0  0  0
   24.0252   70.9161   -1.5926 O   0  0  0  0  0  0  0  0  0  0  0  0
   24.4475   69.7808    0.8507 O   0  0  0  0  0  0  0  0  0  0  0  0
   22.9840   71.0421   -0.6254 C   0  0  1  0  0  0  0  0  0  0  0  0
   23.5394   70.8606    0.7718 C   0  0  2  0  0  0  0  0  0  0  0  0
   22.5375   72.4986   -0.6035 C   0  0  1  0  0  0  0  0  0  0  0  0
   24.2043   72.2033    1.0233 C   0  0  2  0  0  0  0  0  0  0  0  0
   24.3264   69.9941   -1.6248 H   0  0  0  0  0  0  0  0  0  0  0  0
   23.9767   68.9494    0.6834 H   0  0  0  0  0  0  0  0  0  0  0  0
   26.1746   73.8069    2.2580 O   0  0  0  0  0  0  0  0  0  0  0  0
   24.0993   73.5176    6.3629 O   0  0  0  0  0  0  0  0  0  0  0  0
   24.2034   72.5631    2.4133 N   0  0  0  0  0  0  0  0  0  0  0  0
   25.1396   73.6617    4.3009 N   0  0  0  0  0  0  0  0  0  0  0  0
   25.2400   73.3721    2.9341 C   0  0  0  0  0  0  0  0  0  0  0  0
   23.1823   72.1151    3.2444 C   0  0  0  0  0  0  0  0  0  0  0  0
   23.1018   72.3990    4.5459 C   0  0  0  0  0  0  0  0  0  0  0  0
   24.1452   73.2389    5.1687 C   0  0  0  0  0  0  0  0  0  0  0  0
   25.8509   74.2235    4.6858 H   0  0  0  0  0  0  0  0  0  0  0  0
   18.7899   72.8080   -2.5535 O   0  0  0  0  0  0  0  0  0  0  0  0
   19.3650   71.3931   -3.0830 P   0  0  2  0  0  0  0  0  0  0  0  0
   19.0787   70.3900   -1.8464 O   0  0  0  0  0  0  0  0  0  0  0  0
   20.7993   71.4384   -3.5245 O   0  0  0  0  0  0  0  0  0  0  0  0
   18.3265   70.9334   -4.2297 O   0  0  0  0  0  0  0  0  0  0  0  0
   16.3256   72.0229   -4.8824 O   0  0  0  0  0  0  0  0  0  0  0  0
   15.2084   68.1114   -5.5915 O   0  0  0  0  0  0  0  0  0  0  0  0
   15.7385   69.8587   -7.8082 O   0  0  0  0  0  0  0  0  0  0  0  0
   16.8342   68.7530   -3.2840 O   0  0  0  0  0  0  0  0  0  0  0  0
   16.1122   69.2184   -5.5342 C   0  0  1  0  0  0  0  0  0  0  0  0
   15.5890   70.3132   -6.4661 C   0  0  1  0  0  0  0  0  0  0  0  0
   16.1875   69.7272   -4.0959 C   0  0  2  0  0  0  0  0  0  0  0  0
   16.3525   71.6283   -6.2591 C   0  0  1  0  0  0  0  0  0  0  0  0
   16.9247   71.0647   -4.0079 C   0  0  1  0  0  0  0  0  0  0  0  0
   15.1564   67.7832   -6.5021 H   0  0  0  0  0  0  0  0  0  0  0  0
   15.2522   69.0275   -7.9255 H   0  0  0  0  0  0  0  0  0  0  0  0
   16.3578   67.9111   -3.3481 H   0  0  0  0  0  0  0  0  0  0  0  0
   16.1666   72.6526   -8.4097 O   0  0  0  0  0  0  0  0  0  0  0  0
   15.7448   72.7751   -7.0638 C   0  0  0  0  0  0  0  0  0  0  0  0
   15.7872   73.3758   -8.9339 H   0  0  0  0  0  0  0  0  0  0  0  0
 25 28  1  0
 25 24  1  0
 25 26  1  1
 25 27  2  0
  1  4  1  0
  1 24  1  0
  1  2  1  6
  1  3  2  0
  6 11  1  0
  6 12  1  0
 29 36  1  0
 29 37  1  0
  9  7  1  6
  7 13  1  0
 10  8  1  6
  8 14  1  0
 37 28  1  6
  4  5  1  0
 33 30  1  1
 30 38  1  0
 34 31  1  6
 31 39  1  0
 35 32  1  1
 32 40  1  0
 41 42  1  0
 41 43  1  0
 15 19  2  0
 16 22  2  0
 12 17  1  1
 17 19  1  0
 17 20  1  0
 18 19  1  0
 18 22  1  0
 18 23  1  0
  9 10  1  0
  9 11  1  0
 10 12  1  0
 11  5  1  1
 33 34  1  0
 33 35  1  0
 34 36  1  0
 35 37  1  0
 36 42  1  6
 20 21  2  0
 21 22  1  0
M  CHG  2   2  -1  26  -1
M  END
>  <COMPND>  (54) 
    8629 

>  <AUTHOR>  (54) 
    GENERATED BY OPEN BABEL 3.1.1

>  <MASTER>  (54) 
        0    0    0    0    0    0    0    0   58    0   58    0

>  <minimizedAffinity>  (54) 
-6.75253

>  <CNNscore>  (54) 
0.4108491540

>  <CNNaffinity>  (54) 
4.1073760986

>  <CNN_VS>  (54) 
1.6875120401

>  <CNNaffinity_variance>  (54) 
0.3026566207

$$$$
55
     RDKit          3D

 43 45  0  0  0  0  0  0  0  0999 V2000
   20.1548   74.7470   -3.3569 P   0  0  2  0  0  0  0  0  0  0  0  0
   21.6689   75.0536   -3.8374 O   0  0  0  0  0  0  0  0  0  0  0  0
   19.3788   75.9479   -2.9019 O   0  0  0  0  0  0  0  0  0  0  0  0
   20.3257   73.5656   -2.2646 O   0  0  0  0  0  0  0  0  0  0  0  0
   21.3404   73.6933   -1.2837 C   0  0  0  0  0  0  0  0  0  0  0  0
   23.2699   72.6079   -0.3495 O   0  0  0  0  0  0  0  0  0  0  0  0
   22.5565   70.2644   -2.0786 O   0  0  0  0  0  0  0  0  0  0  0  0
   21.6197   69.5054    0.3674 O   0  0  0  0  0  0  0  0  0  0  0  0
   21.6978   71.1768   -1.3965 C   0  0  1  0  0  0  0  0  0  0  0  0
   21.6990   70.8887    0.0903 C   0  0  2  0  0  0  0  0  0  0  0  0
   22.3398   72.5574   -1.4535 C   0  0  1  0  0  0  0  0  0  0  0  0
   23.0201   71.4979    0.5282 C   0  0  2  0  0  0  0  0  0  0  0  0
   22.1672   69.3756   -2.0558 H   0  0  0  0  0  0  0  0  0  0  0  0
   20.7614   69.1647    0.0705 H   0  0  0  0  0  0  0  0  0  0  0  0
   24.6807   70.5416    2.6032 O   0  0  0  0  0  0  0  0  0  0  0  0
   22.7838   73.3956    5.6849 O   0  0  0  0  0  0  0  0  0  0  0  0
   22.9817   71.9736    1.8823 N   0  0  0  0  0  0  0  0  0  0  0  0
   23.7350   71.9636    4.1359 N   0  0  0  0  0  0  0  0  0  0  0  0
   23.8577   71.4260    2.8483 C   0  0  0  0  0  0  0  0  0  0  0  0
   22.0829   72.9724    2.2407 C   0  0  0  0  0  0  0  0  0  0  0  0
   21.9774   73.4732    3.4733 C   0  0  0  0  0  0  0  0  0  0  0  0
   22.8566   72.9558    4.5417 C   0  0  0  0  0  0  0  0  0  0  0  0
   24.3349   71.5971    4.8255 H   0  0  0  0  0  0  0  0  0  0  0  0
   19.5189   73.9772   -4.6281 O   0  0  0  0  0  0  0  0  0  0  0  0
   20.2130   73.0927   -5.7896 P   0  0  2  0  0  0  0  0  0  0  0  0
   21.1544   72.0686   -4.9635 O   0  0  0  0  0  0  0  0  0  0  0  0
   20.9376   73.8998   -6.8276 O   0  0  0  0  0  0  0  0  0  0  0  0
   19.0207   72.1726   -6.3699 O   0  0  0  0  0  0  0  0  0  0  0  0
   18.2641   70.1113   -5.4782 O   0  0  0  0  0  0  0  0  0  0  0  0
   17.4654   69.4351   -9.4727 O   0  0  0  0  0  0  0  0  0  0  0  0
   15.2945   69.9082   -7.6529 O   0  0  0  0  0  0  0  0  0  0  0  0
   19.8654   70.8576   -8.7007 O   0  0  0  0  0  0  0  0  0  0  0  0
   17.5814   70.2180   -8.2815 C   0  0  1  0  0  0  0  0  0  0  0  0
   16.6293   69.6396   -7.2328 C   0  0  1  0  0  0  0  0  0  0  0  0
   19.0252   70.1620   -7.7859 C   0  0  2  0  0  0  0  0  0  0  0  0
   16.8883   70.2540   -5.8506 C   0  0  1  0  0  0  0  0  0  0  0  0
   19.1641   70.7547   -6.3825 C   0  0  1  0  0  0  0  0  0  0  0  0
   16.5510   69.4668   -9.7928 H   0  0  0  0  0  0  0  0  0  0  0  0
   15.1442   69.5153   -8.5271 H   0  0  0  0  0  0  0  0  0  0  0  0
   19.7686   70.4728   -9.5852 H   0  0  0  0  0  0  0  0  0  0  0  0
   16.2903   68.1839   -4.8182 O   0  0  0  0  0  0  0  0  0  0  0  0
   16.0588   69.5794   -4.7603 C   0  0  0  0  0  0  0  0  0  0  0  0
   15.7690   67.7414   -4.1296 H   0  0  0  0  0  0  0  0  0  0  0  0
 25 28  1  0
 25 24  1  0
 25 26  1  1
 25 27  2  0
  1  4  1  0
  1 24  1  0
  1  2  1  6
  1  3  2  0
  6 11  1  0
  6 12  1  0
 29 36  1  0
 29 37  1  0
  9  7  1  6
  7 13  1  0
 10  8  1  6
  8 14  1  0
 37 28  1  6
  4  5  1  0
 33 30  1  6
 30 38  1  0
 34 31  1  6
 31 39  1  0
 35 32  1  6
 32 40  1  0
 41 42  1  0
 41 43  1  0
 15 19  2  0
 16 22  2  0
 12 17  1  1
 17 19  1  0
 17 20  1  0
 18 19  1  0
 18 22  1  0
 18 23  1  0
  9 10  1  0
  9 11  1  0
 10 12  1  0
 11  5  1  1
 33 34  1  0
 33 35  1  0
 34 36  1  0
 35 37  1  0
 36 42  1  1
 20 21  2  0
 21 22  1  0
M  CHG  2   2  -1  26  -1
M  END
>  <COMPND>  (55) 
    8629 

>  <AUTHOR>  (55) 
    GENERATED BY OPEN BABEL 3.1.1

>  <MASTER>  (55) 
        0    0    0    0    0    0    0    0   58    0   58    0

>  <minimizedAffinity>  (55) 
-7.20572

>  <CNNscore>  (55) 
0.3864659369

>  <CNNaffinity>  (55) 
4.0609698296

>  <CNN_VS>  (55) 
1.5694265366

>  <CNNaffinity_variance>  (55) 
0.2405171394

$$$$
56
     RDKit          3D

 43 45  0  0  0  0  0  0  0  0999 V2000
   19.8126   70.3426   -1.5791 P   0  0  2  0  0  0  0  0  0  0  0  0
   19.6849   71.8625   -1.0396 O   0  0  0  0  0  0  0  0  0  0  0  0
   18.5504   69.5349   -1.5028 O   0  0  0  0  0  0  0  0  0  0  0  0
   21.0783   69.7470   -0.7660 O   0  0  0  0  0  0  0  0  0  0  0  0
   21.6517   70.5340    0.2634 C   0  0  0  0  0  0  0  0  0  0  0  0
   23.0942   72.4509    0.1271 O   0  0  0  0  0  0  0  0  0  0  0  0
   25.3279   70.5037   -0.3309 O   0  0  0  0  0  0  0  0  0  0  0  0
   25.6281   71.1439    2.3029 O   0  0  0  0  0  0  0  0  0  0  0  0
   24.1795   70.3787    0.5064 C   0  0  1  0  0  0  0  0  0  0  0  0
   24.3342   71.2393    1.7430 C   0  0  2  0  0  0  0  0  0  0  0  0
   23.0076   71.0471   -0.2017 C   0  0  1  0  0  0  0  0  0  0  0  0
   24.0322   72.6262    1.2014 C   0  0  2  0  0  0  0  0  0  0  0  0
   26.0893   70.0838    0.1002 H   0  0  0  0  0  0  0  0  0  0  0  0
   25.7721   70.2434    2.6331 H   0  0  0  0  0  0  0  0  0  0  0  0
   24.5882   75.3848    1.4449 O   0  0  0  0  0  0  0  0  0  0  0  0
   21.7428   75.8273    5.0434 O   0  0  0  0  0  0  0  0  0  0  0  0
   23.4504   73.4865    2.1928 N   0  0  0  0  0  0  0  0  0  0  0  0
   23.1708   75.6029    3.2364 N   0  0  0  0  0  0  0  0  0  0  0  0
   23.7973   74.8572    2.2297 C   0  0  0  0  0  0  0  0  0  0  0  0
   22.5464   72.9696    3.1144 C   0  0  0  0  0  0  0  0  0  0  0  0
   21.9587   73.6938    4.0691 C   0  0  0  0  0  0  0  0  0  0  0  0
   22.2667   75.1345    4.1765 C   0  0  0  0  0  0  0  0  0  0  0  0
   23.3975   76.5602    3.2817 H   0  0  0  0  0  0  0  0  0  0  0  0
   20.3987   70.5353   -3.0732 O   0  0  0  0  0  0  0  0  0  0  0  0
   19.8956   71.4601   -4.2998 P   0  0  2  0  0  0  0  0  0  0  0  0
   21.0909   71.3241   -5.3816 O   0  0  0  0  0  0  0  0  0  0  0  0
   19.5696   72.8733   -3.9115 O   0  0  0  0  0  0  0  0  0  0  0  0
   18.6637   70.6436   -4.9485 O   0  0  0  0  0  0  0  0  0  0  0  0
   16.6859   71.8920   -5.3308 O   0  0  0  0  0  0  0  0  0  0  0  0
   15.1359   68.0798   -5.6707 O   0  0  0  0  0  0  0  0  0  0  0  0
   15.4532   69.6964   -8.0231 O   0  0  0  0  0  0  0  0  0  0  0  0
   17.1595   68.6435   -3.6789 O   0  0  0  0  0  0  0  0  0  0  0  0
   16.1294   69.0994   -5.8078 C   0  0  1  0  0  0  0  0  0  0  0  0
   15.5604   70.2068   -6.6971 C   0  0  1  0  0  0  0  0  0  0  0  0
   16.4777   69.6462   -4.4247 C   0  0  2  0  0  0  0  0  0  0  0  0
   16.4579   71.4514   -6.6745 C   0  0  1  0  0  0  0  0  0  0  0  0
   17.3323   70.9117   -4.5165 C   0  0  1  0  0  0  0  0  0  0  0  0
   14.9106   67.7280   -6.5453 H   0  0  0  0  0  0  0  0  0  0  0  0
   14.8844   68.9105   -8.0234 H   0  0  0  0  0  0  0  0  0  0  0  0
   16.6080   67.8478   -3.6278 H   0  0  0  0  0  0  0  0  0  0  0  0
   14.5467   72.2313   -7.8779 O   0  0  0  0  0  0  0  0  0  0  0  0
   15.8306   72.6226   -7.4275 C   0  0  0  0  0  0  0  0  0  0  0  0
   14.1353   72.9670   -8.3588 H   0  0  0  0  0  0  0  0  0  0  0  0
 25 28  1  0
 25 24  1  0
 25 26  1  6
 25 27  2  0
  1  4  1  0
  1 24  1  0
  1  2  1  1
  1  3  2  0
  6 11  1  0
  6 12  1  0
 29 36  1  0
 29 37  1  0
  9  7  1  6
  7 13  1  0
 10  8  1  6
  8 14  1  0
 37 28  1  6
  4  5  1  0
 33 30  1  1
 30 38  1  0
 34 31  1  6
 31 39  1  0
 35 32  1  1
 32 40  1  0
 41 42  1  0
 41 43  1  0
 15 19  2  0
 16 22  2  0
 12 17  1  1
 17 19  1  0
 17 20  1  0
 18 19  1  0
 18 22  1  0
 18 23  1  0
  9 10  1  0
  9 11  1  0
 10 12  1  0
 11  5  1  1
 33 34  1  0
 33 35  1  0
 34 36  1  0
 35 37  1  0
 36 42  1  6
 20 21  2  0
 21 22  1  0
M  CHG  2   2  -1  26  -1
M  END
>  <COMPND>  (56) 
    8629 

>  <AUTHOR>  (56) 
    GENERATED BY OPEN BABEL 3.1.1

>  <MASTER>  (56) 
        0    0    0    0    0    0    0    0   58    0   58    0

>  <minimizedAffinity>  (56) 
-7.01579

>  <CNNscore>  (56) 
0.3616967201

>  <CNNaffinity>  (56) 
3.9537208080

>  <CNN_VS>  (56) 
1.4300478697

>  <CNNaffinity_variance>  (56) 
0.2352721989

$$$$
57
     RDKit          3D

 43 45  0  0  0  0  0  0  0  0999 V2000
   21.7824   73.4355   -3.7131 P   0  0  2  0  0  0  0  0  0  0  0  0
   21.9228   74.5224   -2.5230 O   0  0  0  0  0  0  0  0  0  0  0  0
   21.5477   74.0157   -5.0768 O   0  0  0  0  0  0  0  0  0  0  0  0
   20.6447   72.4176   -3.1772 O   0  0  0  0  0  0  0  0  0  0  0  0
   19.2944   72.8472   -3.1865 C   0  0  0  0  0  0  0  0  0  0  0  0
   17.0775   72.0847   -2.6597 O   0  0  0  0  0  0  0  0  0  0  0  0
   18.3977   69.7094   -1.3924 O   0  0  0  0  0  0  0  0  0  0  0  0
   17.5790   68.7210   -3.7985 O   0  0  0  0  0  0  0  0  0  0  0  0
   18.7770   70.4362   -2.5599 C   0  0  1  0  0  0  0  0  0  0  0  0
   17.8490   70.1052   -3.7101 C   0  0  2  0  0  0  0  0  0  0  0  0
   18.4695   71.9085   -2.3167 C   0  0  1  0  0  0  0  0  0  0  0  0
   16.6147   70.9206   -3.3637 C   0  0  2  0  0  0  0  0  0  0  0  0
   18.5850   68.7662   -1.5238 H   0  0  0  0  0  0  0  0  0  0  0  0
   18.3949   68.2458   -4.0208 H   0  0  0  0  0  0  0  0  0  0  0  0
   13.8990   71.6968   -3.3610 O   0  0  0  0  0  0  0  0  0  0  0  0
   13.9356   72.5042   -7.8984 O   0  0  0  0  0  0  0  0  0  0  0  0
   15.8895   71.3387   -4.5301 N   0  0  0  0  0  0  0  0  0  0  0  0
   13.9195   72.0984   -5.6203 N   0  0  0  0  0  0  0  0  0  0  0  0
   14.5283   71.7072   -4.4210 C   0  0  0  0  0  0  0  0  0  0  0  0
   16.5277   71.3805   -5.7649 C   0  0  0  0  0  0  0  0  0  0  0  0
   15.9326   71.7547   -6.8995 C   0  0  0  0  0  0  0  0  0  0  0  0
   14.5110   72.1553   -6.8723 C   0  0  0  0  0  0  0  0  0  0  0  0
   12.9713   72.3592   -5.5686 H   0  0  0  0  0  0  0  0  0  0  0  0
   23.1397   72.5685   -3.5754 O   0  0  0  0  0  0  0  0  0  0  0  0
   23.4789   71.2615   -2.6867 P   0  0  2  0  0  0  0  0  0  0  0  0
   25.0900   71.1523   -2.7874 O   0  0  0  0  0  0  0  0  0  0  0  0
   22.7464   70.0217   -3.1112 O   0  0  0  0  0  0  0  0  0  0  0  0
   23.1956   71.7177   -1.1646 O   0  0  0  0  0  0  0  0  0  0  0  0
   24.6925   71.2166    0.6031 O   0  0  0  0  0  0  0  0  0  0  0  0
   21.2112   71.6332    2.7844 O   0  0  0  0  0  0  0  0  0  0  0  0
   23.2349   73.6648    2.9421 O   0  0  0  0  0  0  0  0  0  0  0  0
   21.1429   70.3612    0.1850 O   0  0  0  0  0  0  0  0  0  0  0  0
   22.1296   71.9256    1.7278 C   0  0  1  0  0  0  0  0  0  0  0  0
   23.4484   72.3854    2.3524 C   0  0  1  0  0  0  0  0  0  0  0  0
   22.3421   70.6671    0.8885 C   0  0  2  0  0  0  0  0  0  0  0  0
   24.5630   72.4612    1.3002 C   0  0  1  0  0  0  0  0  0  0  0  0
   23.5047   70.8317   -0.0919 C   0  0  1  0  0  0  0  0  0  0  0  0
   21.0715   72.4283    3.3209 H   0  0  0  0  0  0  0  0  0  0  0  0
   22.5285   73.6032    3.6042 H   0  0  0  0  0  0  0  0  0  0  0  0
   20.4147   70.2591    0.8167 H   0  0  0  0  0  0  0  0  0  0  0  0
   25.8613   72.4484    3.3059 O   0  0  0  0  0  0  0  0  0  0  0  0
   25.9219   72.7648    1.9273 C   0  0  0  0  0  0  0  0  0  0  0  0
   26.7195   72.6363    3.7181 H   0  0  0  0  0  0  0  0  0  0  0  0
 25 28  1  0
 25 24  1  0
 25 26  1  1
 25 27  2  0
  1  4  1  0
  1 24  1  0
  1  2  1  1
  1  3  2  0
  6 11  1  0
  6 12  1  0
 29 36  1  0
 29 37  1  0
  9  7  1  1
  7 13  1  0
 10  8  1  1
  8 14  1  0
 37 28  1  6
  4  5  1  0
 33 30  1  1
 30 38  1  0
 34 31  1  6
 31 39  1  0
 35 32  1  6
 32 40  1  0
 41 42  1  0
 41 43  1  0
 15 19  2  0
 16 22  2  0
 12 17  1  6
 17 19  1  0
 17 20  1  0
 18 19  1  0
 18 22  1  0
 18 23  1  0
  9 10  1  0
  9 11  1  0
 10 12  1  0
 11  5  1  6
 33 34  1  0
 33 35  1  0
 34 36  1  0
 35 37  1  0
 36 42  1  1
 20 21  2  0
 21 22  1  0
M  CHG  2   2  -1  26  -1
M  END
>  <COMPND>  (57) 
    8629 

>  <AUTHOR>  (57) 
    GENERATED BY OPEN BABEL 3.1.1

>  <MASTER>  (57) 
        0    0    0    0    0    0    0    0   58    0   58    0

>  <minimizedAffinity>  (57) 
-6.61142

>  <CNNscore>  (57) 
0.3599341214

>  <CNNaffinity>  (57) 
4.0611944199

>  <CNN_VS>  (57) 
1.4617624283

>  <CNNaffinity_variance>  (57) 
0.2045046985

$$$$
58
     RDKit          3D

 43 45  0  0  0  0  0  0  0  0999 V2000
   17.4133   69.9611   -2.3871 P   0  0  2  0  0  0  0  0  0  0  0  0
   17.3107   68.4655   -1.7789 O   0  0  0  0  0  0  0  0  0  0  0  0
   16.1861   70.8050   -2.2051 O   0  0  0  0  0  0  0  0  0  0  0  0
   17.8842   69.7267   -3.9172 O   0  0  0  0  0  0  0  0  0  0  0  0
   17.0296   69.0014   -4.7840 C   0  0  0  0  0  0  0  0  0  0  0  0
   17.0560   71.2279   -5.6874 O   0  0  0  0  0  0  0  0  0  0  0  0
   15.2805   70.1669   -7.8582 O   0  0  0  0  0  0  0  0  0  0  0  0
   17.7239   70.2318   -9.0674 O   0  0  0  0  0  0  0  0  0  0  0  0
   16.3607   69.5255   -7.1821 C   0  0  1  0  0  0  0  0  0  0  0  0
   17.6854   70.0801   -7.6630 C   0  0  2  0  0  0  0  0  0  0  0  0
   16.3369   69.9758   -5.7268 C   0  0  1  0  0  0  0  0  0  0  0  0
   17.7558   71.4086   -6.9294 C   0  0  2  0  0  0  0  0  0  0  0  0
   15.2749   69.8945   -8.7897 H   0  0  0  0  0  0  0  0  0  0  0  0
   17.6764   69.3593   -9.4884 H   0  0  0  0  0  0  0  0  0  0  0  0
   18.5749   74.0799   -6.5160 O   0  0  0  0  0  0  0  0  0  0  0  0
   22.9622   72.8269   -5.8658 O   0  0  0  0  0  0  0  0  0  0  0  0
   19.1060   71.8090   -6.6499 N   0  0  0  0  0  0  0  0  0  0  0  0
   20.7587   73.4538   -6.1924 N   0  0  0  0  0  0  0  0  0  0  0  0
   19.4119   73.1767   -6.4594 C   0  0  0  0  0  0  0  0  0  0  0  0
   20.1100   70.8504   -6.5668 C   0  0  0  0  0  0  0  0  0  0  0  0
   21.3897   71.1312   -6.3127 C   0  0  0  0  0  0  0  0  0  0  0  0
   21.7934   72.5363   -6.1012 C   0  0  0  0  0  0  0  0  0  0  0  0
   20.9955   74.4000   -6.0566 H   0  0  0  0  0  0  0  0  0  0  0  0
   18.7445   70.5491   -1.6833 O   0  0  0  0  0  0  0  0  0  0  0  0
   19.4817   71.9797   -1.8347 P   0  0  2  0  0  0  0  0  0  0  0  0
   18.5821   72.9599   -0.9141 O   0  0  0  0  0  0  0  0  0  0  0  0
   19.6451   72.4407   -3.2541 O   0  0  0  0  0  0  0  0  0  0  0  0
   20.8661   71.8139   -1.0217 O   0  0  0  0  0  0  0  0  0  0  0  0
   22.8110   71.5672   -2.3532 O   0  0  0  0  0  0  0  0  0  0  0  0
   24.3343   70.3217    1.2771 O   0  0  0  0  0  0  0  0  0  0  0  0
   25.1088   72.8753    0.2155 O   0  0  0  0  0  0  0  0  0  0  0  0
   21.6359   69.5982    0.5187 O   0  0  0  0  0  0  0  0  0  0  0  0
   23.5111   71.1060    0.4096 C   0  0  1  0  0  0  0  0  0  0  0  0
   24.4220   71.8833   -0.5426 C   0  0  1  0  0  0  0  0  0  0  0  0
   22.5832   70.1778   -0.3719 C   0  0  2  0  0  0  0  0  0  0  0  0
   23.6141   72.5377   -1.6714 C   0  0  1  0  0  0  0  0  0  0  0  0
   21.8649   70.9177   -1.5018 C   0  0  1  0  0  0  0  0  0  0  0  0
   24.9255   70.9051    1.7767 H   0  0  0  0  0  0  0  0  0  0  0  0
   25.6146   72.4490    0.9251 H   0  0  0  0  0  0  0  0  0  0  0  0
   22.1031   69.1325    1.2292 H   0  0  0  0  0  0  0  0  0  0  0  0
   24.9334   72.1871   -3.6324 O   0  0  0  0  0  0  0  0  0  0  0  0
   24.5165   73.1855   -2.7193 C   0  0  0  0  0  0  0  0  0  0  0  0
   25.5082   72.5850   -4.3054 H   0  0  0  0  0  0  0  0  0  0  0  0
 25 28  1  0
 25 24  1  0
 25 26  1  1
 25 27  2  0
  1  4  1  0
  1 24  1  0
  1  2  1  1
  1  3  2  0
  6 11  1  0
  6 12  1  0
 29 36  1  0
 29 37  1  0
  9  7  1  6
  7 13  1  0
 10  8  1  6
  8 14  1  0
 37 28  1  1
  4  5  1  0
 33 30  1  1
 30 38  1  0
 34 31  1  1
 31 39  1  0
 35 32  1  1
 32 40  1  0
 41 42  1  0
 41 43  1  0
 15 19  2  0
 16 22  2  0
 12 17  1  1
 17 19  1  0
 17 20  1  0
 18 19  1  0
 18 22  1  0
 18 23  1  0
  9 10  1  0
  9 11  1  0
 10 12  1  0
 11  5  1  1
 33 34  1  0
 33 35  1  0
 34 36  1  0
 35 37  1  0
 36 42  1  6
 20 21  2  0
 21 22  1  0
M  CHG  2   2  -1  26  -1
M  END
>  <COMPND>  (58) 
    8629 

>  <AUTHOR>  (58) 
    GENERATED BY OPEN BABEL 3.1.1

>  <MASTER>  (58) 
        0    0    0    0    0    0    0    0   58    0   58    0

>  <minimizedAffinity>  (58) 
-7.83975

>  <CNNscore>  (58) 
0.3596774936

>  <CNNaffinity>  (58) 
3.9580593109

>  <CNN_VS>  (58) 
1.4236248732

>  <CNNaffinity_variance>  (58) 
1.1351888180

$$$$
59
     RDKit          3D

 43 45  0  0  0  0  0  0  0  0999 V2000
   20.1178   72.9258   -1.8207 P   0  0  2  0  0  0  0  0  0  0  0  0
   18.8138   73.8690   -1.9860 O   0  0  0  0  0  0  0  0  0  0  0  0
   19.9125   71.7030   -0.9757 O   0  0  0  0  0  0  0  0  0  0  0  0
   21.2712   73.9425   -1.3168 O   0  0  0  0  0  0  0  0  0  0  0  0
   22.1242   73.5288   -0.2637 C   0  0  0  0  0  0  0  0  0  0  0  0
   24.5227   73.4000   -0.1975 O   0  0  0  0  0  0  0  0  0  0  0  0
   24.2343   70.7761   -1.6199 O   0  0  0  0  0  0  0  0  0  0  0  0
   24.6643   70.0088    0.9614 O   0  0  0  0  0  0  0  0  0  0  0  0
   23.3997   71.3562   -0.6187 C   0  0  1  0  0  0  0  0  0  0  0  0
   24.0681   71.2702    0.7375 C   0  0  2  0  0  0  0  0  0  0  0  0
   23.3567   72.8603   -0.8574 C   0  0  1  0  0  0  0  0  0  0  0  0
   25.0883   72.3932    0.6577 C   0  0  2  0  0  0  0  0  0  0  0  0
   24.2769   69.8155   -1.4883 H   0  0  0  0  0  0  0  0  0  0  0  0
   23.9747   69.3281    1.0043 H   0  0  0  0  0  0  0  0  0  0  0  0
   27.0737   71.4593    2.4364 O   0  0  0  0  0  0  0  0  0  0  0  0
   26.0614   74.6973    5.5560 O   0  0  0  0  0  0  0  0  0  0  0  0
   25.3653   72.9737    1.9413 N   0  0  0  0  0  0  0  0  0  0  0  0
   26.5682   73.0724    3.9882 N   0  0  0  0  0  0  0  0  0  0  0  0
   26.3830   72.4283    2.7583 C   0  0  0  0  0  0  0  0  0  0  0  0
   24.6321   74.0716    2.3782 C   0  0  0  0  0  0  0  0  0  0  0  0
   24.8202   74.6735    3.5544 C   0  0  0  0  0  0  0  0  0  0  0  0
   25.8643   74.1657    4.4677 C   0  0  0  0  0  0  0  0  0  0  0  0
   27.2715   72.7096    4.5743 H   0  0  0  0  0  0  0  0  0  0  0  0
   20.5435   72.6227   -3.3504 O   0  0  0  0  0  0  0  0  0  0  0  0
   20.6168   71.2355   -4.1769 P   0  0  2  0  0  0  0  0  0  0  0  0
   21.5766   70.3087   -3.2617 O   0  0  0  0  0  0  0  0  0  0  0  0
   21.0764   71.3893   -5.5978 O   0  0  0  0  0  0  0  0  0  0  0  0
   19.1483   70.5856   -4.0154 O   0  0  0  0  0  0  0  0  0  0  0  0
   17.6515   71.0781   -5.7856 O   0  0  0  0  0  0  0  0  0  0  0  0
   14.9517   69.6092   -3.0281 O   0  0  0  0  0  0  0  0  0  0  0  0
   15.6264   68.0316   -5.3311 O   0  0  0  0  0  0  0  0  0  0  0  0
   17.1641   71.2551   -2.1474 O   0  0  0  0  0  0  0  0  0  0  0  0
   16.2079   69.6884   -3.7070 C   0  0  1  0  0  0  0  0  0  0  0  0
   15.9691   69.4077   -5.1919 C   0  0  1  0  0  0  0  0  0  0  0  0
   16.7938   71.0855   -3.5114 C   0  0  2  0  0  0  0  0  0  0  0  0
   17.2156   69.7349   -6.0251 C   0  0  1  0  0  0  0  0  0  0  0  0
   17.9996   71.3249   -4.4219 C   0  0  1  0  0  0  0  0  0  0  0  0
   14.5745   68.7244   -3.1479 H   0  0  0  0  0  0  0  0  0  0  0  0
   14.8381   67.8381   -4.7998 H   0  0  0  0  0  0  0  0  0  0  0  0
   16.3922   71.1013   -1.5814 H   0  0  0  0  0  0  0  0  0  0  0  0
   15.5677   69.8152   -7.7534 O   0  0  0  0  0  0  0  0  0  0  0  0
   16.9500   69.6126   -7.5239 C   0  0  0  0  0  0  0  0  0  0  0  0
   15.3839   69.7406   -8.7033 H   0  0  0  0  0  0  0  0  0  0  0  0
 25 28  1  0
 25 24  1  0
 25 26  1  1
 25 27  2  0
  1  4  1  0
  1 24  1  0
  1  2  1  6
  1  3  2  0
  6 11  1  0
  6 12  1  0
 29 36  1  0
 29 37  1  0
  9  7  1  6
  7 13  1  0
 10  8  1  6
  8 14  1  0
 37 28  1  1
  4  5  1  0
 33 30  1  1
 30 38  1  0
 34 31  1  1
 31 39  1  0
 35 32  1  1
 32 40  1  0
 41 42  1  0
 41 43  1  0
 15 19  2  0
 16 22  2  0
 12 17  1  1
 17 19  1  0
 17 20  1  0
 18 19  1  0
 18 22  1  0
 18 23  1  0
  9 10  1  0
  9 11  1  0
 10 12  1  0
 11  5  1  1
 33 34  1  0
 33 35  1  0
 34 36  1  0
 35 37  1  0
 36 42  1  6
 20 21  2  0
 21 22  1  0
M  CHG  2   2  -1  26  -1
M  END
>  <COMPND>  (59) 
    8629 

>  <AUTHOR>  (59) 
    GENERATED BY OPEN BABEL 3.1.1

>  <MASTER>  (59) 
        0    0    0    0    0    0    0    0   58    0   58    0

>  <minimizedAffinity>  (59) 
-6.72740

>  <CNNscore>  (59) 
0.3586533666

>  <CNNaffinity>  (59) 
4.0487961769

>  <CNN_VS>  (59) 
1.4521143436

>  <CNNaffinity_variance>  (59) 
0.3153813183

$$$$
60
     RDKit          3D

 43 45  0  0  0  0  0  0  0  0999 V2000
   20.4093   73.4281   -1.8582 P   0  0  2  0  0  0  0  0  0  0  0  0
   19.0745   73.0820   -2.7043 O   0  0  0  0  0  0  0  0  0  0  0  0
   20.3355   74.6871   -1.0451 O   0  0  0  0  0  0  0  0  0  0  0  0
   21.5930   73.3715   -2.9597 O   0  0  0  0  0  0  0  0  0  0  0  0
   21.2463   73.4665   -4.3303 C   0  0  0  0  0  0  0  0  0  0  0  0
   21.5307   71.3852   -5.4971 O   0  0  0  0  0  0  0  0  0  0  0  0
   23.8611   72.6854   -6.8644 O   0  0  0  0  0  0  0  0  0  0  0  0
   21.8982   72.8493   -8.7504 O   0  0  0  0  0  0  0  0  0  0  0  0
   22.6167   73.2566   -6.4637 C   0  0  1  0  0  0  0  0  0  0  0  0
   21.5084   72.8073   -7.3928 C   0  0  2  0  0  0  0  0  0  0  0  0
   22.2074   72.6119   -5.1453 C   0  0  1  0  0  0  0  0  0  0  0  0
   21.2417   71.3936   -6.9046 C   0  0  2  0  0  0  0  0  0  0  0  0
   24.1431   73.0820   -7.7042 H   0  0  0  0  0  0  0  0  0  0  0  0
   22.0562   73.7695   -9.0133 H   0  0  0  0  0  0  0  0  0  0  0  0
   19.0263   73.1363   -6.7231 O   0  0  0  0  0  0  0  0  0  0  0  0
   16.0512   69.7498   -7.6830 O   0  0  0  0  0  0  0  0  0  0  0  0
   19.8770   70.9940   -7.1028 N   0  0  0  0  0  0  0  0  0  0  0  0
   17.5467   71.4487   -7.2014 N   0  0  0  0  0  0  0  0  0  0  0  0
   18.8383   71.9471   -6.9880 C   0  0  0  0  0  0  0  0  0  0  0  0
   19.5798   69.6701   -7.4076 C   0  0  0  0  0  0  0  0  0  0  0  0
   18.3427   69.2106   -7.6068 C   0  0  0  0  0  0  0  0  0  0  0  0
   17.2004   70.1416   -7.5054 C   0  0  0  0  0  0  0  0  0  0  0  0
   16.8071   72.0945   -7.1262 H   0  0  0  0  0  0  0  0  0  0  0  0
   20.6514   72.0830   -0.9950 O   0  0  0  0  0  0  0  0  0  0  0  0
   20.3757   70.5302   -1.3496 P   0  0  2  0  0  0  0  0  0  0  0  0
   20.8228   69.7566   -0.0008 O   0  0  0  0  0  0  0  0  0  0  0  0
   21.0642   70.0518   -2.5950 O   0  0  0  0  0  0  0  0  0  0  0  0
   18.7675   70.3978   -1.3815 O   0  0  0  0  0  0  0  0  0  0  0  0
   17.1091   68.7048   -1.3761 O   0  0  0  0  0  0  0  0  0  0  0  0
   15.8559   70.8455   -4.6772 O   0  0  0  0  0  0  0  0  0  0  0  0
   14.3428   70.9829   -2.2400 O   0  0  0  0  0  0  0  0  0  0  0  0
   18.6843   70.4745   -4.1854 O   0  0  0  0  0  0  0  0  0  0  0  0
   16.4241   70.6708   -3.3765 C   0  0  1  0  0  0  0  0  0  0  0  0
   15.3701   70.0240   -2.4756 C   0  0  1  0  0  0  0  0  0  0  0  0
   17.6583   69.7775   -3.4868 C   0  0  2  0  0  0  0  0  0  0  0  0
   15.9846   69.5621   -1.1474 C   0  0  1  0  0  0  0  0  0  0  0  0
   18.1600   69.3348   -2.1112 C   0  0  1  0  0  0  0  0  0  0  0  0
   15.0720   71.4122   -4.6142 H   0  0  0  0  0  0  0  0  0  0  0  0
   13.9634   71.2667   -3.0867 H   0  0  0  0  0  0  0  0  0  0  0  0
   18.3543   70.7490   -5.0547 H   0  0  0  0  0  0  0  0  0  0  0  0
   13.7885   68.6273   -1.0367 O   0  0  0  0  0  0  0  0  0  0  0  0
   14.9882   68.7744   -0.2996 C   0  0  0  0  0  0  0  0  0  0  0  0
   13.1450   68.1275   -0.5095 H   0  0  0  0  0  0  0  0  0  0  0  0
 25 28  1  0
 25 24  1  0
 25 26  1  1
 25 27  2  0
  1  4  1  0
  1 24  1  0
  1  2  1  6
  1  3  2  0
  6 11  1  0
  6 12  1  0
 29 36  1  0
 29 37  1  0
  9  7  1  6
  7 13  1  0
 10  8  1  6
  8 14  1  0
 37 28  1  1
  4  5  1  0
 33 30  1  6
 30 38  1  0
 34 31  1  1
 31 39  1  0
 35 32  1  1
 32 40  1  0
 41 42  1  0
 41 43  1  0
 15 19  2  0
 16 22  2  0
 12 17  1  1
 17 19  1  0
 17 20  1  0
 18 19  1  0
 18 22  1  0
 18 23  1  0
  9 10  1  0
  9 11  1  0
 10 12  1  0
 11  5  1  6
 33 34  1  0
 33 35  1  0
 34 36  1  0
 35 37  1  0
 36 42  1  1
 20 21  2  0
 21 22  1  0
M  CHG  2   2  -1  26  -1
M  END
>  <COMPND>  (60) 
    8629 

>  <AUTHOR>  (60) 
    GENERATED BY OPEN BABEL 3.1.1

>  <MASTER>  (60) 
        0    0    0    0    0    0    0    0   58    0   58    0

>  <minimizedAffinity>  (60) 
-7.52516

>  <CNNscore>  (60) 
0.3577222526

>  <CNNaffinity>  (60) 
3.8980579376

>  <CNN_VS>  (60) 
1.3944220543

>  <CNNaffinity_variance>  (60) 
0.8742281795

$$$$
61
     RDKit          3D

 43 45  0  0  0  0  0  0  0  0999 V2000
   24.5276   71.1803    0.0850 P   0  0  2  0  0  0  0  0  0  0  0  0
   24.6344   69.8586    1.0119 O   0  0  0  0  0  0  0  0  0  0  0  0
   24.8407   70.9635   -1.3664 O   0  0  0  0  0  0  0  0  0  0  0  0
   25.4524   72.2662    0.8487 O   0  0  0  0  0  0  0  0  0  0  0  0
   26.0695   71.8906    2.0678 C   0  0  0  0  0  0  0  0  0  0  0  0
   26.7310   72.8590    4.1650 O   0  0  0  0  0  0  0  0  0  0  0  0
   24.8903   75.1263    3.4850 O   0  0  0  0  0  0  0  0  0  0  0  0
   27.3424   76.1441    2.8621 O   0  0  0  0  0  0  0  0  0  0  0  0
   25.7204   74.3487    2.6238 C   0  0  1  0  0  0  0  0  0  0  0  0
   27.1724   74.7428    2.7964 C   0  0  2  0  0  0  0  0  0  0  0  0
   25.7168   72.9145    3.1380 C   0  0  1  0  0  0  0  0  0  0  0  0
   27.5349   74.0482    4.0980 C   0  0  2  0  0  0  0  0  0  0  0  0
   24.8767   76.0464    3.1764 H   0  0  0  0  0  0  0  0  0  0  0  0
   27.0991   76.5397    2.0106 H   0  0  0  0  0  0  0  0  0  0  0  0
   29.6089   75.7546    4.9723 O   0  0  0  0  0  0  0  0  0  0  0  0
   32.8156   72.5203    4.2674 O   0  0  0  0  0  0  0  0  0  0  0  0
   28.9209   73.6777    4.1536 N   0  0  0  0  0  0  0  0  0  0  0  0
   31.2039   74.1427    4.6208 N   0  0  0  0  0  0  0  0  0  0  0  0
   29.8833   74.6096    4.6072 C   0  0  0  0  0  0  0  0  0  0  0  0
   29.3137   72.4027    3.7613 C   0  0  0  0  0  0  0  0  0  0  0  0
   30.5773   71.9734    3.7790 C   0  0  0  0  0  0  0  0  0  0  0  0
   31.6443   72.8852    4.2396 C   0  0  0  0  0  0  0  0  0  0  0  0
   31.8916   74.7747    4.9327 H   0  0  0  0  0  0  0  0  0  0  0  0
   23.0286   71.7095    0.3780 O   0  0  0  0  0  0  0  0  0  0  0  0
   21.6005   70.9576    0.2868 P   0  0  2  0  0  0  0  0  0  0  0  0
   20.6421   71.8669    1.2208 O   0  0  0  0  0  0  0  0  0  0  0  0
   21.6434   69.5068    0.6705 O   0  0  0  0  0  0  0  0  0  0  0  0
   21.0872   71.2367   -1.2177 O   0  0  0  0  0  0  0  0  0  0  0  0
   19.7426   69.5801   -2.2492 O   0  0  0  0  0  0  0  0  0  0  0  0
   20.9293   71.6566   -5.6153 O   0  0  0  0  0  0  0  0  0  0  0  0
   18.2225   71.8921   -4.6849 O   0  0  0  0  0  0  0  0  0  0  0  0
   22.7967   71.2391   -3.4432 O   0  0  0  0  0  0  0  0  0  0  0  0
   20.5419   71.5052   -4.2470 C   0  0  1  0  0  0  0  0  0  0  0  0
   19.1347   70.9056   -4.2106 C   0  0  1  0  0  0  0  0  0  0  0  0
   21.5374   70.5833   -3.5454 C   0  0  2  0  0  0  0  0  0  0  0  0
   18.7561   70.4669   -2.7896 C   0  0  1  0  0  0  0  0  0  0  0  0
   21.0421   70.1676   -2.1590 C   0  0  1  0  0  0  0  0  0  0  0  0
   20.3015   72.2413   -6.0664 H   0  0  0  0  0  0  0  0  0  0  0  0
   18.4731   72.1608   -5.5828 H   0  0  0  0  0  0  0  0  0  0  0  0
   23.0996   71.4969   -4.3273 H   0  0  0  0  0  0  0  0  0  0  0  0
   17.6164   68.4808   -2.1074 O   0  0  0  0  0  0  0  0  0  0  0  0
   17.4224   69.7238   -2.7567 C   0  0  0  0  0  0  0  0  0  0  0  0
   16.7757   67.9969   -2.0788 H   0  0  0  0  0  0  0  0  0  0  0  0
 25 28  1  0
 25 24  1  0
 25 26  1  1
 25 27  2  0
  1  4  1  0
  1 24  1  0
  1  2  1  1
  1  3  2  0
  6 11  1  0
  6 12  1  0
 29 36  1  0
 29 37  1  0
  9  7  1  1
  7 13  1  0
 10  8  1  1
  8 14  1  0
 37 28  1  1
  4  5  1  0
 33 30  1  6
 30 38  1  0
 34 31  1  1
 31 39  1  0
 35 32  1  1
 32 40  1  0
 41 42  1  0
 41 43  1  0
 15 19  2  0
 16 22  2  0
 12 17  1  6
 17 19  1  0
 17 20  1  0
 18 19  1  0
 18 22  1  0
 18 23  1  0
  9 10  1  0
  9 11  1  0
 10 12  1  0
 11  5  1  6
 33 34  1  0
 33 35  1  0
 34 36  1  0
 35 37  1  0
 36 42  1  6
 20 21  2  0
 21 22  1  0
M  CHG  2   2  -1  26  -1
M  END
>  <COMPND>  (61) 
    8629 

>  <AUTHOR>  (61) 
    GENERATED BY OPEN BABEL 3.1.1

>  <MASTER>  (61) 
        0    0    0    0    0    0    0    0   58    0   58    0

>  <minimizedAffinity>  (61) 
-6.70729

>  <CNNscore>  (61) 
0.8685544729

>  <CNNaffinity>  (61) 
4.5178337097

>  <CNN_VS>  (61) 
3.9239847660

>  <CNNaffinity_variance>  (61) 
0.1367824972

$$$$
62
     RDKit          3D

 43 45  0  0  0  0  0  0  0  0999 V2000
   21.2219   70.4920   -0.6197 P   0  0  2  0  0  0  0  0  0  0  0  0
   21.7720   69.6249    0.6305 O   0  0  0  0  0  0  0  0  0  0  0  0
   20.6728   71.8418   -0.2621 O   0  0  0  0  0  0  0  0  0  0  0  0
   20.1931   69.4898   -1.3647 O   0  0  0  0  0  0  0  0  0  0  0  0
   19.3066   70.0267   -2.3310 C   0  0  0  0  0  0  0  0  0  0  0  0
   17.3036   68.9064   -1.6189 O   0  0  0  0  0  0  0  0  0  0  0  0
   16.9614   68.0961   -4.4854 O   0  0  0  0  0  0  0  0  0  0  0  0
   15.2269   70.1869   -4.2477 O   0  0  0  0  0  0  0  0  0  0  0  0
   17.4758   69.3131   -3.9471 C   0  0  1  0  0  0  0  0  0  0  0  0
   16.3498   70.1590   -3.3903 C   0  0  2  0  0  0  0  0  0  0  0  0
   18.2688   68.9726   -2.6915 C   0  0  1  0  0  0  0  0  0  0  0  0
   16.0596   69.4673   -2.0692 C   0  0  2  0  0  0  0  0  0  0  0  0
   16.4514   68.2881   -5.2885 H   0  0  0  0  0  0  0  0  0  0  0  0
   15.4620   70.6369   -5.0741 H   0  0  0  0  0  0  0  0  0  0  0  0
   14.0773   68.8251   -0.1623 O   0  0  0  0  0  0  0  0  0  0  0  0
   14.2556   73.0327    1.7101 O   0  0  0  0  0  0  0  0  0  0  0  0
   15.5694   70.3758   -1.0713 N   0  0  0  0  0  0  0  0  0  0  0  0
   14.1679   70.9206    0.7686 N   0  0  0  0  0  0  0  0  0  0  0  0
   14.5718   69.9544   -0.1616 C   0  0  0  0  0  0  0  0  0  0  0  0
   16.0774   71.6684   -1.0016 C   0  0  0  0  0  0  0  0  0  0  0  0
   15.6807   72.5783   -0.1093 C   0  0  0  0  0  0  0  0  0  0  0  0
   14.6417   72.2185    0.8771 C   0  0  0  0  0  0  0  0  0  0  0  0
   13.4735   70.6497    1.4122 H   0  0  0  0  0  0  0  0  0  0  0  0
   22.4881   70.5253   -1.6240 O   0  0  0  0  0  0  0  0  0  0  0  0
   23.7067   71.5785   -1.7613 P   0  0  2  0  0  0  0  0  0  0  0  0
   22.9704   72.9375   -2.2396 O   0  0  0  0  0  0  0  0  0  0  0  0
   24.8146   71.1231   -2.6663 O   0  0  0  0  0  0  0  0  0  0  0  0
   24.1633   71.8753   -0.2420 O   0  0  0  0  0  0  0  0  0  0  0  0
   23.1347   72.6828    1.7345 O   0  0  0  0  0  0  0  0  0  0  0  0
   26.5552   74.9956    1.7786 O   0  0  0  0  0  0  0  0  0  0  0  0
   26.2702   72.8495    3.6656 O   0  0  0  0  0  0  0  0  0  0  0  0
   25.2309   74.4240   -0.7312 O   0  0  0  0  0  0  0  0  0  0  0  0
   25.7819   73.8177    1.5338 C   0  0  1  0  0  0  0  0  0  0  0  0
   25.1987   73.3415    2.8657 C   0  0  1  0  0  0  0  0  0  0  0  0
   24.6651   74.1502    0.5460 C   0  0  2  0  0  0  0  0  0  0  0  0
   24.1464   72.2456    2.6494 C   0  0  1  0  0  0  0  0  0  0  0  0
   23.6463   73.0138    0.4420 C   0  0  1  0  0  0  0  0  0  0  0  0
   27.2664   74.7912    2.4046 H   0  0  0  0  0  0  0  0  0  0  0  0
   26.9279   73.5510    3.7942 H   0  0  0  0  0  0  0  0  0  0  0  0
   25.8738   75.1453   -0.6520 H   0  0  0  0  0  0  0  0  0  0  0  0
   22.2755   72.6637    4.0756 O   0  0  0  0  0  0  0  0  0  0  0  0
   23.4392   71.8674    3.9490 C   0  0  0  0  0  0  0  0  0  0  0  0
   21.8149   72.4336    4.8982 H   0  0  0  0  0  0  0  0  0  0  0  0
 25 28  1  0
 25 24  1  0
 25 26  1  6
 25 27  2  0
  1  4  1  0
  1 24  1  0
  1  2  1  1
  1  3  2  0
  6 11  1  0
  6 12  1  0
 29 36  1  0
 29 37  1  0
  9  7  1  1
  7 13  1  0
 10  8  1  6
  8 14  1  0
 37 28  1  1
  4  5  1  0
 33 30  1  1
 30 38  1  0
 34 31  1  1
 31 39  1  0
 35 32  1  6
 32 40  1  0
 41 42  1  0
 41 43  1  0
 15 19  2  0
 16 22  2  0
 12 17  1  1
 17 19  1  0
 17 20  1  0
 18 19  1  0
 18 22  1  0
 18 23  1  0
  9 10  1  0
  9 11  1  0
 10 12  1  0
 11  5  1  1
 33 34  1  0
 33 35  1  0
 34 36  1  0
 35 37  1  0
 36 42  1  1
 20 21  2  0
 21 22  1  0
M  CHG  2   2  -1  26  -1
M  END
>  <COMPND>  (62) 
    8629 

>  <AUTHOR>  (62) 
    GENERATED BY OPEN BABEL 3.1.1

>  <MASTER>  (62) 
        0    0    0    0    0    0    0    0   58    0   58    0

>  <minimizedAffinity>  (62) 
-7.13133

>  <CNNscore>  (62) 
0.8561696410

>  <CNNaffinity>  (62) 
4.5098023415

>  <CNN_VS>  (62) 
3.8611557484

>  <CNNaffinity_variance>  (62) 
0.1167928353

$$$$
63
     RDKit          3D

 43 45  0  0  0  0  0  0  0  0999 V2000
   15.1908   70.6205   -1.5256 P   0  0  2  0  0  0  0  0  0  0  0  0
   14.7859   71.5562   -0.2694 O   0  0  0  0  0  0  0  0  0  0  0  0
   14.4048   70.8681   -2.7796 O   0  0  0  0  0  0  0  0  0  0  0  0
   15.1115   69.1175   -0.9319 O   0  0  0  0  0  0  0  0  0  0  0  0
   14.1976   68.8526    0.1181 C   0  0  0  0  0  0  0  0  0  0  0  0
   12.3405   67.3285    0.1638 O   0  0  0  0  0  0  0  0  0  0  0  0
   10.7832   69.4781   -1.2309 O   0  0  0  0  0  0  0  0  0  0  0  0
    9.9474   69.7203    1.3536 O   0  0  0  0  0  0  0  0  0  0  0  0
   11.7903   69.6000   -0.2278 C   0  0  1  0  0  0  0  0  0  0  0  0
   11.2387   69.1946    1.1231 C   0  0  2  0  0  0  0  0  0  0  0  0
   12.8371   68.5222   -0.4803 C   0  0  1  0  0  0  0  0  0  0  0  0
   11.2436   67.6786    1.0234 C   0  0  2  0  0  0  0  0  0  0  0  0
   10.1035   70.1565   -1.0905 H   0  0  0  0  0  0  0  0  0  0  0  0
    9.9970   70.6873    1.4092 H   0  0  0  0  0  0  0  0  0  0  0  0
    9.1925   67.2844    2.9249 O   0  0  0  0  0  0  0  0  0  0  0  0
   12.0768   65.2430    5.8838 O   0  0  0  0  0  0  0  0  0  0  0  0
   11.4305   67.0465    2.2989 N   0  0  0  0  0  0  0  0  0  0  0  0
   10.6303   66.2681    4.3966 N   0  0  0  0  0  0  0  0  0  0  0  0
   10.3349   66.8986    3.1811 C   0  0  0  0  0  0  0  0  0  0  0  0
   12.6890   66.5807    2.6637 C   0  0  0  0  0  0  0  0  0  0  0  0
   12.9543   65.9828    3.8270 C   0  0  0  0  0  0  0  0  0  0  0  0
   11.8648   65.7891    4.8055 C   0  0  0  0  0  0  0  0  0  0  0  0
    9.8825   66.1544    5.0272 H   0  0  0  0  0  0  0  0  0  0  0  0
   16.7813   70.8715   -1.6680 O   0  0  0  0  0  0  0  0  0  0  0  0
   17.9368   69.9865   -2.3713 P   0  0  2  0  0  0  0  0  0  0  0  0
   17.7030   68.5106   -1.7512 O   0  0  0  0  0  0  0  0  0  0  0  0
   19.3254   70.5250   -2.1817 O   0  0  0  0  0  0  0  0  0  0  0  0
   17.4732   69.8595   -3.9120 O   0  0  0  0  0  0  0  0  0  0  0  0
   18.3027   71.7593   -5.0607 O   0  0  0  0  0  0  0  0  0  0  0  0
   16.1986   69.9914   -8.1426 O   0  0  0  0  0  0  0  0  0  0  0  0
   19.0697   69.9286   -8.1669 O   0  0  0  0  0  0  0  0  0  0  0  0
   15.1295   69.9475   -5.4529 O   0  0  0  0  0  0  0  0  0  0  0  0
   17.0054   70.0164   -6.9621 C   0  0  1  0  0  0  0  0  0  0  0  0
   18.3080   70.7503   -7.2868 C   0  0  1  0  0  0  0  0  0  0  0  0
   16.2438   70.7383   -5.8521 C   0  0  2  0  0  0  0  0  0  0  0  0
   19.1068   71.0516   -6.0116 C   0  0  1  0  0  0  0  0  0  0  0  0
   17.1426   71.0332   -4.6498 C   0  0  1  0  0  0  0  0  0  0  0  0
   16.6762   69.5339   -8.8512 H   0  0  0  0  0  0  0  0  0  0  0  0
   18.5538   69.7454   -8.9679 H   0  0  0  0  0  0  0  0  0  0  0  0
   14.5682   69.7680   -6.2227 H   0  0  0  0  0  0  0  0  0  0  0  0
   20.1271   72.5963   -7.5221 O   0  0  0  0  0  0  0  0  0  0  0  0
   20.3305   71.9201   -6.2951 C   0  0  0  0  0  0  0  0  0  0  0  0
   20.8980   73.1533   -7.7153 H   0  0  0  0  0  0  0  0  0  0  0  0
 25 28  1  0
 25 24  1  0
 25 26  1  1
 25 27  2  0
  1  4  1  0
  1 24  1  0
  1  2  1  1
  1  3  2  0
  6 11  1  0
  6 12  1  0
 29 36  1  0
 29 37  1  0
  9  7  1  6
  7 13  1  0
 10  8  1  6
  8 14  1  0
 37 28  1  6
  4  5  1  0
 33 30  1  6
 30 38  1  0
 34 31  1  6
 31 39  1  0
 35 32  1  1
 32 40  1  0
 41 42  1  0
 41 43  1  0
 15 19  2  0
 16 22  2  0
 12 17  1  1
 17 19  1  0
 17 20  1  0
 18 19  1  0
 18 22  1  0
 18 23  1  0
  9 10  1  0
  9 11  1  0
 10 12  1  0
 11  5  1  1
 33 34  1  0
 33 35  1  0
 34 36  1  0
 35 37  1  0
 36 42  1  6
 20 21  2  0
 21 22  1  0
M  CHG  2   2  -1  26  -1
M  END
>  <COMPND>  (63) 
    8629 

>  <AUTHOR>  (63) 
    GENERATED BY OPEN BABEL 3.1.1

>  <MASTER>  (63) 
        0    0    0    0    0    0    0    0   58    0   58    0

>  <minimizedAffinity>  (63) 
-6.81105

>  <CNNscore>  (63) 
0.7858273983

>  <CNNaffinity>  (63) 
4.2824525833

>  <CNN_VS>  (63) 
3.3652684689

>  <CNNaffinity_variance>  (63) 
0.1119194627

$$$$
64
     RDKit          3D

 43 45  0  0  0  0  0  0  0  0999 V2000
   22.0737   73.8716   -2.3738 P   0  0  2  0  0  0  0  0  0  0  0  0
   21.1946   72.9630   -1.3643 O   0  0  0  0  0  0  0  0  0  0  0  0
   22.4827   75.2088   -1.8298 O   0  0  0  0  0  0  0  0  0  0  0  0
   21.1948   73.9045   -3.7319 O   0  0  0  0  0  0  0  0  0  0  0  0
   20.5483   72.7142   -4.1479 C   0  0  0  0  0  0  0  0  0  0  0  0
   20.7449   70.8038   -5.5920 O   0  0  0  0  0  0  0  0  0  0  0  0
   22.9489   72.3031   -6.9651 O   0  0  0  0  0  0  0  0  0  0  0  0
   20.8366   72.6773   -8.6489 O   0  0  0  0  0  0  0  0  0  0  0  0
   21.7392   72.7995   -6.3946 C   0  0  1  0  0  0  0  0  0  0  0  0
   20.5601   72.4562   -7.2809 C   0  0  2  0  0  0  0  0  0  0  0  0
   21.4428   71.9854   -5.1413 C   0  0  1  0  0  0  0  0  0  0  0  0
   20.3409   70.9877   -6.9587 C   0  0  2  0  0  0  0  0  0  0  0  0
   23.1590   72.8079   -7.7670 H   0  0  0  0  0  0  0  0  0  0  0  0
   20.9683   73.6258   -8.8030 H   0  0  0  0  0  0  0  0  0  0  0  0
   19.1151   70.2934   -9.4068 O   0  0  0  0  0  0  0  0  0  0  0  0
   15.0604   69.5037   -7.3630 O   0  0  0  0  0  0  0  0  0  0  0  0
   18.9663   70.5964   -7.0953 N   0  0  0  0  0  0  0  0  0  0  0  0
   17.0972   69.9006   -8.3872 N   0  0  0  0  0  0  0  0  0  0  0  0
   18.4487   70.2685   -8.3700 C   0  0  0  0  0  0  0  0  0  0  0  0
   18.1469   70.5403   -5.9731 C   0  0  0  0  0  0  0  0  0  0  0  0
   16.8598   70.1889   -6.0065 C   0  0  0  0  0  0  0  0  0  0  0  0
   16.2414   69.8310   -7.2993 C   0  0  0  0  0  0  0  0  0  0  0  0
   16.7148   69.6683   -9.2644 H   0  0  0  0  0  0  0  0  0  0  0  0
   23.3044   72.8978   -2.7611 O   0  0  0  0  0  0  0  0  0  0  0  0
   23.8048   71.5075   -2.1057 P   0  0  2  0  0  0  0  0  0  0  0  0
   25.2179   71.2360   -2.8453 O   0  0  0  0  0  0  0  0  0  0  0  0
   22.8183   70.3818   -2.2227 O   0  0  0  0  0  0  0  0  0  0  0  0
   24.2052   71.8911   -0.5899 O   0  0  0  0  0  0  0  0  0  0  0  0
   25.5007   70.9276    1.1449 O   0  0  0  0  0  0  0  0  0  0  0  0
   22.1180   71.8944    3.3067 O   0  0  0  0  0  0  0  0  0  0  0  0
   24.5225   73.4203    3.6784 O   0  0  0  0  0  0  0  0  0  0  0  0
   21.8664   70.8974    0.6007 O   0  0  0  0  0  0  0  0  0  0  0  0
   23.1124   72.0724    2.2943 C   0  0  1  0  0  0  0  0  0  0  0  0
   24.4774   72.1809    2.9767 C   0  0  1  0  0  0  0  0  0  0  0  0
   23.0791   70.8754    1.3460 C   0  0  2  0  0  0  0  0  0  0  0  0
   25.6168   72.1056    1.9515 C   0  0  1  0  0  0  0  0  0  0  0  0
   24.2820   70.8697    0.4010 C   0  0  1  0  0  0  0  0  0  0  0  0
   22.1336   72.6513    3.9119 H   0  0  0  0  0  0  0  0  0  0  0  0
   23.7976   73.4552    4.3222 H   0  0  0  0  0  0  0  0  0  0  0  0
   21.1125   70.9005    1.2102 H   0  0  0  0  0  0  0  0  0  0  0  0
   27.4362   73.3797    2.8320 O   0  0  0  0  0  0  0  0  0  0  0  0
   26.9876   72.0534    2.6226 C   0  0  0  0  0  0  0  0  0  0  0  0
   28.3076   73.3620    3.2589 H   0  0  0  0  0  0  0  0  0  0  0  0
 25 28  1  0
 25 24  1  0
 25 26  1  6
 25 27  2  0
  1  4  1  0
  1 24  1  0
  1  2  1  1
  1  3  2  0
  6 11  1  0
  6 12  1  0
 29 36  1  0
 29 37  1  0
  9  7  1  6
  7 13  1  0
 10  8  1  6
  8 14  1  0
 37 28  1  6
  4  5  1  0
 33 30  1  1
 30 38  1  0
 34 31  1  6
 31 39  1  0
 35 32  1  6
 32 40  1  0
 41 42  1  0
 41 43  1  0
 15 19  2  0
 16 22  2  0
 12 17  1  1
 17 19  1  0
 17 20  1  0
 18 19  1  0
 18 22  1  0
 18 23  1  0
  9 10  1  0
  9 11  1  0
 10 12  1  0
 11  5  1  1
 33 34  1  0
 33 35  1  0
 34 36  1  0
 35 37  1  0
 36 42  1  1
 20 21  2  0
 21 22  1  0
M  CHG  2   2  -1  26  -1
M  END
>  <COMPND>  (64) 
    8629 

>  <AUTHOR>  (64) 
    GENERATED BY OPEN BABEL 3.1.1

>  <MASTER>  (64) 
        0    0    0    0    0    0    0    0   58    0   58    0

>  <minimizedAffinity>  (64) 
-7.34298

>  <CNNscore>  (64) 
0.7743937969

>  <CNNaffinity>  (64) 
4.5225625038

>  <CNN_VS>  (64) 
3.5022442341

>  <CNNaffinity_variance>  (64) 
0.0362683609

$$$$
65
     RDKit          3D

 43 45  0  0  0  0  0  0  0  0999 V2000
   21.3460   70.5843   -0.8034 P   0  0  2  0  0  0  0  0  0  0  0  0
   21.2827   69.4946    0.3908 O   0  0  0  0  0  0  0  0  0  0  0  0
   20.8223   71.9448   -0.4483 O   0  0  0  0  0  0  0  0  0  0  0  0
   20.6075   69.8480   -2.0406 O   0  0  0  0  0  0  0  0  0  0  0  0
   19.3431   70.3323   -2.4582 C   0  0  0  0  0  0  0  0  0  0  0  0
   17.5148   68.9974   -1.6524 O   0  0  0  0  0  0  0  0  0  0  0  0
   17.1922   68.0655   -4.4840 O   0  0  0  0  0  0  0  0  0  0  0  0
   15.2210   69.9347   -4.2452 O   0  0  0  0  0  0  0  0  0  0  0  0
   17.5681   69.3519   -3.9949 C   0  0  1  0  0  0  0  0  0  0  0  0
   16.3631   70.0702   -3.4243 C   0  0  2  0  0  0  0  0  0  0  0  0
   18.4330   69.1488   -2.7571 C   0  0  1  0  0  0  0  0  0  0  0  0
   16.1987   69.3881   -2.0767 C   0  0  2  0  0  0  0  0  0  0  0  0
   16.6393   68.1694   -5.2749 H   0  0  0  0  0  0  0  0  0  0  0  0
   15.3749   70.3850   -5.0904 H   0  0  0  0  0  0  0  0  0  0  0  0
   14.1974   68.6216   -0.2368 O   0  0  0  0  0  0  0  0  0  0  0  0
   14.0882   72.8154    1.6715 O   0  0  0  0  0  0  0  0  0  0  0  0
   15.6294   70.2595   -1.0877 N   0  0  0  0  0  0  0  0  0  0  0  0
   14.1448   70.7104    0.7120 N   0  0  0  0  0  0  0  0  0  0  0  0
   14.6290   69.7761   -0.2124 C   0  0  0  0  0  0  0  0  0  0  0  0
   16.0635   71.5772   -0.9927 C   0  0  0  0  0  0  0  0  0  0  0  0
   15.5907   72.4559   -0.1064 C   0  0  0  0  0  0  0  0  0  0  0  0
   14.5434   72.0311    0.8448 C   0  0  0  0  0  0  0  0  0  0  0  0
   13.4470   70.3962    1.3318 H   0  0  0  0  0  0  0  0  0  0  0  0
   22.9022   70.5552   -1.2398 O   0  0  0  0  0  0  0  0  0  0  0  0
   24.1747   71.3864   -0.6896 P   0  0  2  0  0  0  0  0  0  0  0  0
   24.2090   72.6896   -1.6477 O   0  0  0  0  0  0  0  0  0  0  0  0
   25.4556   70.6039   -0.6623 O   0  0  0  0  0  0  0  0  0  0  0  0
   23.7041   71.9496    0.7479 O   0  0  0  0  0  0  0  0  0  0  0  0
   25.2568   71.2634    2.4017 O   0  0  0  0  0  0  0  0  0  0  0  0
   22.4157   72.9997    4.8439 O   0  0  0  0  0  0  0  0  0  0  0  0
   24.9266   74.3286    4.4226 O   0  0  0  0  0  0  0  0  0  0  0  0
   21.5898   71.4696    2.5296 O   0  0  0  0  0  0  0  0  0  0  0  0
   23.2031   72.8567    3.6586 C   0  0  1  0  0  0  0  0  0  0  0  0
   24.6784   72.9772    4.0455 C   0  0  1  0  0  0  0  0  0  0  0  0
   22.9209   71.4917    3.0336 C   0  0  2  0  0  0  0  0  0  0  0  0
   25.5915   72.5711    2.8808 C   0  0  1  0  0  0  0  0  0  0  0  0
   23.9157   71.1646    1.9184 C   0  0  1  0  0  0  0  0  0  0  0  0
   22.5899   73.8646    5.2454 H   0  0  0  0  0  0  0  0  0  0  0  0
   24.3434   74.5726    5.1585 H   0  0  0  0  0  0  0  0  0  0  0  0
   20.9697   71.6779    3.2451 H   0  0  0  0  0  0  0  0  0  0  0  0
   27.7110   71.5200    2.5465 O   0  0  0  0  0  0  0  0  0  0  0  0
   27.0614   72.5324    3.2930 C   0  0  0  0  0  0  0  0  0  0  0  0
   28.6475   71.4840    2.7981 H   0  0  0  0  0  0  0  0  0  0  0  0
 25 28  1  0
 25 24  1  0
 25 26  1  6
 25 27  2  0
  1  4  1  0
  1 24  1  0
  1  2  1  1
  1  3  2  0
  6 11  1  0
  6 12  1  0
 29 36  1  0
 29 37  1  0
  9  7  1  1
  7 13  1  0
 10  8  1  6
  8 14  1  0
 37 28  1  6
  4  5  1  0
 33 30  1  1
 30 38  1  0
 34 31  1  6
 31 39  1  0
 35 32  1  6
 32 40  1  0
 41 42  1  0
 41 43  1  0
 15 19  2  0
 16 22  2  0
 12 17  1  1
 17 19  1  0
 17 20  1  0
 18 19  1  0
 18 22  1  0
 18 23  1  0
  9 10  1  0
  9 11  1  0
 10 12  1  0
 11  5  1  1
 33 34  1  0
 33 35  1  0
 34 36  1  0
 35 37  1  0
 36 42  1  1
 20 21  2  0
 21 22  1  0
M  CHG  2   2  -1  26  -1
M  END
>  <COMPND>  (65) 
    8629 

>  <AUTHOR>  (65) 
    GENERATED BY OPEN BABEL 3.1.1

>  <MASTER>  (65) 
        0    0    0    0    0    0    0    0   58    0   58    0

>  <minimizedAffinity>  (65) 
-7.58661

>  <CNNscore>  (65) 
0.7577875257

>  <CNNaffinity>  (65) 
4.4004564285

>  <CNN_VS>  (65) 
3.3346109390

>  <CNNaffinity_variance>  (65) 
0.2062942535

$$$$
66
     RDKit          3D

 43 45  0  0  0  0  0  0  0  0999 V2000
   21.0713   70.5921   -0.4184 P   0  0  2  0  0  0  0  0  0  0  0  0
   21.7785   69.6105    0.6557 O   0  0  0  0  0  0  0  0  0  0  0  0
   20.7080   71.9498    0.1071 O   0  0  0  0  0  0  0  0  0  0  0  0
   19.8442   69.7122   -0.9997 O   0  0  0  0  0  0  0  0  0  0  0  0
   19.3342   70.0283   -2.2834 C   0  0  0  0  0  0  0  0  0  0  0  0
   17.3160   68.9072   -1.6174 O   0  0  0  0  0  0  0  0  0  0  0  0
   17.0104   68.1440   -4.5009 O   0  0  0  0  0  0  0  0  0  0  0  0
   15.2829   70.2396   -4.2543 O   0  0  0  0  0  0  0  0  0  0  0  0
   17.5230   69.3497   -3.9362 C   0  0  1  0  0  0  0  0  0  0  0  0
   16.3934   70.1925   -3.3818 C   0  0  2  0  0  0  0  0  0  0  0  0
   18.2965   68.9854   -2.6751 C   0  0  1  0  0  0  0  0  0  0  0  0
   16.0812   69.4814   -2.0761 C   0  0  2  0  0  0  0  0  0  0  0  0
   16.5126   68.3513   -5.3079 H   0  0  0  0  0  0  0  0  0  0  0  0
   15.5318   70.7014   -5.0702 H   0  0  0  0  0  0  0  0  0  0  0  0
   14.0497   68.8284   -0.2255 O   0  0  0  0  0  0  0  0  0  0  0  0
   14.2424   72.9952    1.7346 O   0  0  0  0  0  0  0  0  0  0  0  0
   15.5814   70.3765   -1.0709 N   0  0  0  0  0  0  0  0  0  0  0  0
   14.1475   70.9036    0.7491 N   0  0  0  0  0  0  0  0  0  0  0  0
   14.5588   69.9507   -0.1915 C   0  0  0  0  0  0  0  0  0  0  0  0
   16.1047   71.6605   -0.9643 C   0  0  0  0  0  0  0  0  0  0  0  0
   15.7006   72.5577   -0.0626 C   0  0  0  0  0  0  0  0  0  0  0  0
   14.6358   72.1926    0.8938 C   0  0  0  0  0  0  0  0  0  0  0  0
   13.4358   70.6294    1.3720 H   0  0  0  0  0  0  0  0  0  0  0  0
   22.1227   70.6052   -1.6461 O   0  0  0  0  0  0  0  0  0  0  0  0
   23.2531   71.6824   -2.0644 P   0  0  2  0  0  0  0  0  0  0  0  0
   24.6337   70.8559   -1.8956 O   0  0  0  0  0  0  0  0  0  0  0  0
   23.1996   72.9645   -1.2851 O   0  0  0  0  0  0  0  0  0  0  0  0
   23.0772   71.8609   -3.6588 O   0  0  0  0  0  0  0  0  0  0  0  0
   22.4732   74.0443   -4.3547 O   0  0  0  0  0  0  0  0  0  0  0  0
   21.6683   71.9926   -7.8466 O   0  0  0  0  0  0  0  0  0  0  0  0
   23.9601   73.7182   -7.7120 O   0  0  0  0  0  0  0  0  0  0  0  0
   21.0634   70.7813   -5.2880 O   0  0  0  0  0  0  0  0  0  0  0  0
   22.3779   72.2809   -6.6388 C   0  0  1  0  0  0  0  0  0  0  0  0
   22.9251   73.7066   -6.7328 C   0  0  1  0  0  0  0  0  0  0  0  0
   21.4220   72.1489   -5.4547 C   0  0  2  0  0  0  0  0  0  0  0  0
   23.4660   74.1828   -5.3779 C   0  0  1  0  0  0  0  0  0  0  0  0
   22.0397   72.6958   -4.1665 C   0  0  1  0  0  0  0  0  0  0  0  0
   22.2697   72.0742   -8.6024 H   0  0  0  0  0  0  0  0  0  0  0  0
   23.6055   73.4149   -8.5626 H   0  0  0  0  0  0  0  0  0  0  0  0
   20.6733   70.4470   -6.1101 H   0  0  0  0  0  0  0  0  0  0  0  0
   25.1490   75.7558   -6.0118 O   0  0  0  0  0  0  0  0  0  0  0  0
   23.8718   75.6546   -5.4094 C   0  0  0  0  0  0  0  0  0  0  0  0
   25.4201   76.6872   -6.0390 H   0  0  0  0  0  0  0  0  0  0  0  0
 25 28  1  0
 25 24  1  0
 25 26  1  6
 25 27  2  0
  1  4  1  0
  1 24  1  0
  1  2  1  1
  1  3  2  0
  6 11  1  0
  6 12  1  0
 29 36  1  0
 29 37  1  0
  9  7  1  1
  7 13  1  0
 10  8  1  6
  8 14  1  0
 37 28  1  6
  4  5  1  0
 33 30  1  6
 30 38  1  0
 34 31  1  6
 31 39  1  0
 35 32  1  1
 32 40  1  0
 41 42  1  0
 41 43  1  0
 15 19  2  0
 16 22  2  0
 12 17  1  1
 17 19  1  0
 17 20  1  0
 18 19  1  0
 18 22  1  0
 18 23  1  0
  9 10  1  0
  9 11  1  0
 10 12  1  0
 11  5  1  1
 33 34  1  0
 33 35  1  0
 34 36  1  0
 35 37  1  0
 36 42  1  6
 20 21  2  0
 21 22  1  0
M  CHG  2   2  -1  26  -1
M  END
>  <COMPND>  (66) 
    8629 

>  <AUTHOR>  (66) 
    GENERATED BY OPEN BABEL 3.1.1

>  <MASTER>  (66) 
        0    0    0    0    0    0    0    0   58    0   58    0

>  <minimizedAffinity>  (66) 
-7.41032

>  <CNNscore>  (66) 
0.7146093845

>  <CNNaffinity>  (66) 
4.2460570335

>  <CNN_VS>  (66) 
3.0342721939

>  <CNNaffinity_variance>  (66) 
0.1697422564

$$$$
67
     RDKit          3D

 43 45  0  0  0  0  0  0  0  0999 V2000
   21.0033   70.5842   -0.5006 P   0  0  2  0  0  0  0  0  0  0  0  0
   21.7197   69.5833    0.5493 O   0  0  0  0  0  0  0  0  0  0  0  0
   20.6750   71.9437    0.0430 O   0  0  0  0  0  0  0  0  0  0  0  0
   19.7483   69.7288   -1.0584 O   0  0  0  0  0  0  0  0  0  0  0  0
   19.2745   69.9979   -2.3663 C   0  0  0  0  0  0  0  0  0  0  0  0
   17.2583   68.8948   -1.6648 O   0  0  0  0  0  0  0  0  0  0  0  0
   16.9070   68.1153   -4.5388 O   0  0  0  0  0  0  0  0  0  0  0  0
   15.1972   70.2242   -4.2816 O   0  0  0  0  0  0  0  0  0  0  0  0
   17.4356   69.3211   -3.9891 C   0  0  1  0  0  0  0  0  0  0  0  0
   16.3196   70.1751   -3.4245 C   0  0  2  0  0  0  0  0  0  0  0  0
   18.2243   68.9596   -2.7367 C   0  0  1  0  0  0  0  0  0  0  0  0
   16.0211   69.4745   -2.1098 C   0  0  2  0  0  0  0  0  0  0  0  0
   16.3993   68.3207   -5.3400 H   0  0  0  0  0  0  0  0  0  0  0  0
   15.4378   70.6790   -5.1038 H   0  0  0  0  0  0  0  0  0  0  0  0
   14.0190   68.8437   -0.2200 O   0  0  0  0  0  0  0  0  0  0  0  0
   14.2594   73.0253    1.7030 O   0  0  0  0  0  0  0  0  0  0  0  0
   15.5415   70.3794   -1.1036 N   0  0  0  0  0  0  0  0  0  0  0  0
   14.1404   70.9263    0.7361 N   0  0  0  0  0  0  0  0  0  0  0  0
   14.5324   69.9643   -0.2036 C   0  0  0  0  0  0  0  0  0  0  0  0
   16.0710   71.6623   -1.0162 C   0  0  0  0  0  0  0  0  0  0  0  0
   15.6854   72.5682   -0.1151 C   0  0  0  0  0  0  0  0  0  0  0  0
   14.6356   72.2145    0.8622 C   0  0  0  0  0  0  0  0  0  0  0  0
   13.4385   70.6597    1.3732 H   0  0  0  0  0  0  0  0  0  0  0  0
   22.0250   70.5892   -1.7532 O   0  0  0  0  0  0  0  0  0  0  0  0
   22.9198   71.7761   -2.3885 P   0  0  2  0  0  0  0  0  0  0  0  0
   24.0759   70.9795   -3.1925 O   0  0  0  0  0  0  0  0  0  0  0  0
   23.4341   72.7649   -1.3826 O   0  0  0  0  0  0  0  0  0  0  0  0
   21.9893   72.4170   -3.5411 O   0  0  0  0  0  0  0  0  0  0  0  0
   20.5014   71.5527   -5.1707 O   0  0  0  0  0  0  0  0  0  0  0  0
   22.5345   74.2785   -7.5132 O   0  0  0  0  0  0  0  0  0  0  0  0
   19.8247   74.8224   -6.7327 O   0  0  0  0  0  0  0  0  0  0  0  0
   23.9597   72.7482   -5.5116 O   0  0  0  0  0  0  0  0  0  0  0  0
   21.9371   73.7823   -6.3122 C   0  0  1  0  0  0  0  0  0  0  0  0
   20.4482   73.5506   -6.5774 C   0  0  1  0  0  0  0  0  0  0  0  0
   22.6225   72.4758   -5.9166 C   0  0  2  0  0  0  0  0  0  0  0  0
   19.7953   72.7722   -5.4272 C   0  0  1  0  0  0  0  0  0  0  0  0
   21.8657   71.7570   -4.7982 C   0  0  1  0  0  0  0  0  0  0  0  0
   22.1041   75.1083   -7.7696 H   0  0  0  0  0  0  0  0  0  0  0  0
   20.2465   75.3038   -7.4617 H   0  0  0  0  0  0  0  0  0  0  0  0
   24.4282   73.2030   -6.2282 H   0  0  0  0  0  0  0  0  0  0  0  0
   18.2128   72.2683   -7.1450 O   0  0  0  0  0  0  0  0  0  0  0  0
   18.3497   72.3930   -5.7414 C   0  0  0  0  0  0  0  0  0  0  0  0
   17.2977   72.0269   -7.3598 H   0  0  0  0  0  0  0  0  0  0  0  0
 25 28  1  0
 25 24  1  0
 25 26  1  6
 25 27  2  0
  1  4  1  0
  1 24  1  0
  1  2  1  1
  1  3  2  0
  6 11  1  0
  6 12  1  0
 29 36  1  0
 29 37  1  0
  9  7  1  1
  7 13  1  0
 10  8  1  6
  8 14  1  0
 37 28  1  1
  4  5  1  0
 33 30  1  6
 30 38  1  0
 34 31  1  1
 31 39  1  0
 35 32  1  1
 32 40  1  0
 41 42  1  0
 41 43  1  0
 15 19  2  0
 16 22  2  0
 12 17  1  1
 17 19  1  0
 17 20  1  0
 18 19  1  0
 18 22  1  0
 18 23  1  0
  9 10  1  0
  9 11  1  0
 10 12  1  0
 11  5  1  1
 33 34  1  0
 33 35  1  0
 34 36  1  0
 35 37  1  0
 36 42  1  6
 20 21  2  0
 21 22  1  0
M  CHG  2   2  -1  26  -1
M  END
>  <COMPND>  (67) 
    8629 

>  <AUTHOR>  (67) 
    GENERATED BY OPEN BABEL 3.1.1

>  <MASTER>  (67) 
        0    0    0    0    0    0    0    0   58    0   58    0

>  <minimizedAffinity>  (67) 
-7.42916

>  <CNNscore>  (67) 
0.6897507906

>  <CNNaffinity>  (67) 
4.1962795258

>  <CNN_VS>  (67) 
2.8943870068

>  <CNNaffinity_variance>  (67) 
0.2944825292

$$$$
68
     RDKit          3D

 43 45  0  0  0  0  0  0  0  0999 V2000
   23.9601   73.1695   -3.5159 P   0  0  2  0  0  0  0  0  0  0  0  0
   23.5684   74.6803   -3.9418 O   0  0  0  0  0  0  0  0  0  0  0  0
   25.3539   72.7495   -3.8801 O   0  0  0  0  0  0  0  0  0  0  0  0
   22.7694   72.2690   -4.1397 O   0  0  0  0  0  0  0  0  0  0  0  0
   21.7425   72.9176   -4.8695 C   0  0  0  0  0  0  0  0  0  0  0  0
   20.9211   70.8059   -5.6694 O   0  0  0  0  0  0  0  0  0  0  0  0
   20.4494   72.1926   -8.2857 O   0  0  0  0  0  0  0  0  0  0  0  0
   17.9541   72.1309   -7.1873 O   0  0  0  0  0  0  0  0  0  0  0  0
   20.3075   72.6971   -6.9588 C   0  0  1  0  0  0  0  0  0  0  0  0
   19.0623   72.1289   -6.3106 C   0  0  2  0  0  0  0  0  0  0  0  0
   21.4149   72.0913   -6.1056 C   0  0  1  0  0  0  0  0  0  0  0  0
   19.5121   70.7259   -5.9401 C   0  0  2  0  0  0  0  0  0  0  0  0
   19.7531   72.5658   -8.8495 H   0  0  0  0  0  0  0  0  0  0  0  0
   17.7061   73.0457   -7.3931 H   0  0  0  0  0  0  0  0  0  0  0  0
   17.0501   69.3423   -5.9861 O   0  0  0  0  0  0  0  0  0  0  0  0
   17.0295   68.8542   -1.4032 O   0  0  0  0  0  0  0  0  0  0  0  0
   18.8409   70.2256   -4.7737 N   0  0  0  0  0  0  0  0  0  0  0  0
   17.0420   69.1002   -3.7042 N   0  0  0  0  0  0  0  0  0  0  0  0
   17.6080   69.5452   -4.9057 C   0  0  0  0  0  0  0  0  0  0  0  0
   19.4053   70.4112   -3.5163 C   0  0  0  0  0  0  0  0  0  0  0  0
   18.8522   69.9818   -2.3801 C   0  0  0  0  0  0  0  0  0  0  0  0
   17.5635   69.2614   -2.4303 C   0  0  0  0  0  0  0  0  0  0  0  0
   16.1827   68.6239   -3.7716 H   0  0  0  0  0  0  0  0  0  0  0  0
   23.6425   73.1447   -1.9312 O   0  0  0  0  0  0  0  0  0  0  0  0
   23.2128   71.9312   -0.9535 P   0  0  2  0  0  0  0  0  0  0  0  0
   24.2183   70.7375   -1.3797 O   0  0  0  0  0  0  0  0  0  0  0  0
   21.7574   71.5698   -1.0243 O   0  0  0  0  0  0  0  0  0  0  0  0
   23.7183   72.3870    0.5099 O   0  0  0  0  0  0  0  0  0  0  0  0
   25.2472   71.4362    2.0510 O   0  0  0  0  0  0  0  0  0  0  0  0
   22.3238   72.6660    4.6953 O   0  0  0  0  0  0  0  0  0  0  0  0
   24.8189   74.0835    4.5803 O   0  0  0  0  0  0  0  0  0  0  0  0
   21.5753   71.5655    2.1247 O   0  0  0  0  0  0  0  0  0  0  0  0
   23.1389   72.7492    3.5230 C   0  0  1  0  0  0  0  0  0  0  0  0
   24.6032   72.8185    3.9610 C   0  0  1  0  0  0  0  0  0  0  0  0
   22.8947   71.5150    2.6567 C   0  0  2  0  0  0  0  0  0  0  0  0
   25.5481   72.6411    2.7649 C   0  0  1  0  0  0  0  0  0  0  0  0
   23.9188   71.4073    1.5255 C   0  0  1  0  0  0  0  0  0  0  0  0
   22.4738   73.4470    5.2495 H   0  0  0  0  0  0  0  0  0  0  0  0
   24.2158   74.1831    5.3336 H   0  0  0  0  0  0  0  0  0  0  0  0
   20.9364   71.6333    2.8507 H   0  0  0  0  0  0  0  0  0  0  0  0
   27.6208   71.4831    2.4963 O   0  0  0  0  0  0  0  0  0  0  0  0
   27.0093   72.5492    3.1991 C   0  0  0  0  0  0  0  0  0  0  0  0
   28.5514   71.4129    2.7624 H   0  0  0  0  0  0  0  0  0  0  0  0
 25 28  1  0
 25 24  1  0
 25 26  1  6
 25 27  2  0
  1  4  1  0
  1 24  1  0
  1  2  1  6
  1  3  2  0
  6 11  1  0
  6 12  1  0
 29 36  1  0
 29 37  1  0
  9  7  1  6
  7 13  1  0
 10  8  1  6
  8 14  1  0
 37 28  1  6
  4  5  1  0
 33 30  1  1
 30 38  1  0
 34 31  1  6
 31 39  1  0
 35 32  1  6
 32 40  1  0
 41 42  1  0
 41 43  1  0
 15 19  2  0
 16 22  2  0
 12 17  1  1
 17 19  1  0
 17 20  1  0
 18 19  1  0
 18 22  1  0
 18 23  1  0
  9 10  1  0
  9 11  1  0
 10 12  1  0
 11  5  1  1
 33 34  1  0
 33 35  1  0
 34 36  1  0
 35 37  1  0
 36 42  1  1
 20 21  2  0
 21 22  1  0
M  CHG  2   2  -1  26  -1
M  END
>  <COMPND>  (68) 
    8629 

>  <AUTHOR>  (68) 
    GENERATED BY OPEN BABEL 3.1.1

>  <MASTER>  (68) 
        0    0    0    0    0    0    0    0   58    0   58    0

>  <minimizedAffinity>  (68) 
-7.48368

>  <CNNscore>  (68) 
0.6242632866

>  <CNNaffinity>  (68) 
4.3328771591

>  <CNN_VS>  (68) 
2.7048561573

>  <CNNaffinity_variance>  (68) 
0.1207705140

$$$$
69
     RDKit          3D

 43 45  0  0  0  0  0  0  0  0999 V2000
   20.1178   70.9578   -1.3298 P   0  0  2  0  0  0  0  0  0  0  0  0
   19.2009   72.0281   -0.5354 O   0  0  0  0  0  0  0  0  0  0  0  0
   20.5820   69.7895   -0.5106 O   0  0  0  0  0  0  0  0  0  0  0  0
   21.2863   71.8616   -1.9899 O   0  0  0  0  0  0  0  0  0  0  0  0
   21.9679   72.7920   -1.1668 C   0  0  0  0  0  0  0  0  0  0  0  0
   24.1661   73.3099   -0.3462 O   0  0  0  0  0  0  0  0  0  0  0  0
   25.1746   71.2886   -2.3180 O   0  0  0  0  0  0  0  0  0  0  0  0
   25.2171   69.9015    0.0295 O   0  0  0  0  0  0  0  0  0  0  0  0
   23.9751   71.2752   -1.5458 C   0  0  1  0  0  0  0  0  0  0  0  0
   24.2851   70.9560   -0.0982 C   0  0  2  0  0  0  0  0  0  0  0  0
   23.4609   72.7064   -1.4529 C   0  0  1  0  0  0  0  0  0  0  0  0
   24.8290   72.2814    0.4072 C   0  0  2  0  0  0  0  0  0  0  0  0
   25.5217   70.3852   -2.3915 H   0  0  0  0  0  0  0  0  0  0  0  0
   24.8243   69.0803   -0.3053 H   0  0  0  0  0  0  0  0  0  0  0  0
   26.5105   73.7321    2.1525 O   0  0  0  0  0  0  0  0  0  0  0  0
   23.7230   72.9931    5.7475 O   0  0  0  0  0  0  0  0  0  0  0  0
   24.5667   72.4841    1.8041 N   0  0  0  0  0  0  0  0  0  0  0  0
   25.1211   73.3631    3.9411 N   0  0  0  0  0  0  0  0  0  0  0  0
   25.4757   73.2273    2.5928 C   0  0  0  0  0  0  0  0  0  0  0  0
   23.4187   71.9492    2.3784 C   0  0  0  0  0  0  0  0  0  0  0  0
   23.0957   72.0866    3.6661 C   0  0  0  0  0  0  0  0  0  0  0  0
   23.9921   72.8491    4.5590 C   0  0  0  0  0  0  0  0  0  0  0  0
   25.7396   73.8766    4.5099 H   0  0  0  0  0  0  0  0  0  0  0  0
   19.1998   70.5656   -2.6012 O   0  0  0  0  0  0  0  0  0  0  0  0
   17.7394   69.8777   -2.6841 P   0  0  2  0  0  0  0  0  0  0  0  0
   16.7372   71.0864   -2.2942 O   0  0  0  0  0  0  0  0  0  0  0  0
   17.5885   68.6495   -1.8340 O   0  0  0  0  0  0  0  0  0  0  0  0
   17.4912   69.6347   -4.2603 O   0  0  0  0  0  0  0  0  0  0  0  0
   18.0433   71.6919   -5.2994 O   0  0  0  0  0  0  0  0  0  0  0  0
   16.9872   69.5226   -8.6505 O   0  0  0  0  0  0  0  0  0  0  0  0
   19.7517   70.1357   -8.1714 O   0  0  0  0  0  0  0  0  0  0  0  0
   15.5010   69.1915   -6.1885 O   0  0  0  0  0  0  0  0  0  0  0  0
   17.5448   69.7197   -7.3483 C   0  0  1  0  0  0  0  0  0  0  0  0
   18.6763   70.7434   -7.4612 C   0  0  1  0  0  0  0  0  0  0  0  0
   16.4523   70.2273   -6.4091 C   0  0  2  0  0  0  0  0  0  0  0  0
   19.1451   71.2060   -6.0751 C   0  0  1  0  0  0  0  0  0  0  0  0
   17.0310   70.7081   -5.0772 C   0  0  1  0  0  0  0  0  0  0  0  0
   17.6756   69.1998   -9.2516 H   0  0  0  0  0  0  0  0  0  0  0  0
   19.4423   69.8477   -9.0446 H   0  0  0  0  0  0  0  0  0  0  0  0
   15.1419   68.8960   -7.0391 H   0  0  0  0  0  0  0  0  0  0  0  0
   21.4387   71.7823   -6.4163 O   0  0  0  0  0  0  0  0  0  0  0  0
   20.1625   72.3413   -6.1649 C   0  0  0  0  0  0  0  0  0  0  0  0
   22.0963   72.4933   -6.4762 H   0  0  0  0  0  0  0  0  0  0  0  0
 25 28  1  0
 25 24  1  0
 25 26  1  1
 25 27  2  0
  1  4  1  0
  1 24  1  0
  1  2  1  1
  1  3  2  0
  6 11  1  0
  6 12  1  0
 29 36  1  0
 29 37  1  0
  9  7  1  6
  7 13  1  0
 10  8  1  6
  8 14  1  0
 37 28  1  6
  4  5  1  0
 33 30  1  6
 30 38  1  0
 34 31  1  1
 31 39  1  0
 35 32  1  1
 32 40  1  0
 41 42  1  0
 41 43  1  0
 15 19  2  0
 16 22  2  0
 12 17  1  1
 17 19  1  0
 17 20  1  0
 18 19  1  0
 18 22  1  0
 18 23  1  0
  9 10  1  0
  9 11  1  0
 10 12  1  0
 11  5  1  1
 33 34  1  0
 33 35  1  0
 34 36  1  0
 35 37  1  0
 36 42  1  6
 20 21  2  0
 21 22  1  0
M  CHG  2   2  -1  26  -1
M  END
>  <COMPND>  (69) 
    8629 

>  <AUTHOR>  (69) 
    GENERATED BY OPEN BABEL 3.1.1

>  <MASTER>  (69) 
        0    0    0    0    0    0    0    0   58    0   58    0

>  <minimizedAffinity>  (69) 
-7.32003

>  <CNNscore>  (69) 
0.5699819326

>  <CNNaffinity>  (69) 
4.4081921577

>  <CNN_VS>  (69) 
2.5125899315

>  <CNNaffinity_variance>  (69) 
0.1919619143

$$$$
70
     RDKit          3D

 43 45  0  0  0  0  0  0  0  0999 V2000
   20.0502   71.0799   -2.3778 P   0  0  2  0  0  0  0  0  0  0  0  0
   18.4829   71.3801   -2.6437 O   0  0  0  0  0  0  0  0  0  0  0  0
   20.3385   69.7761   -1.6933 O   0  0  0  0  0  0  0  0  0  0  0  0
   20.5755   72.4058   -1.6136 O   0  0  0  0  0  0  0  0  0  0  0  0
   21.4751   72.2499   -0.5300 C   0  0  0  0  0  0  0  0  0  0  0  0
   23.6186   73.2173   -0.0363 O   0  0  0  0  0  0  0  0  0  0  0  0
   24.7183   71.3956   -2.1488 O   0  0  0  0  0  0  0  0  0  0  0  0
   25.3794   70.0988    0.1573 O   0  0  0  0  0  0  0  0  0  0  0  0
   23.6709   71.1590   -1.2095 C   0  0  1  0  0  0  0  0  0  0  0  0
   24.2452   70.9415    0.1748 C   0  0  2  0  0  0  0  0  0  0  0  0
   22.8972   72.4595   -1.0321 C   0  0  1  0  0  0  0  0  0  0  0  0
   24.5775   72.3602    0.6047 C   0  0  2  0  0  0  0  0  0  0  0  0
   25.2264   70.5789   -2.2788 H   0  0  0  0  0  0  0  0  0  0  0  0
   25.1164   69.2081   -0.1223 H   0  0  0  0  0  0  0  0  0  0  0  0
   26.4975   73.7142    2.1725 O   0  0  0  0  0  0  0  0  0  0  0  0
   24.1179   72.9788    6.0503 O   0  0  0  0  0  0  0  0  0  0  0  0
   24.4847   72.5377    2.0264 N   0  0  0  0  0  0  0  0  0  0  0  0
   25.3110   73.3471    4.1021 N   0  0  0  0  0  0  0  0  0  0  0  0
   25.5033   73.2324    2.7194 C   0  0  0  0  0  0  0  0  0  0  0  0
   23.3925   72.0262    2.7187 C   0  0  0  0  0  0  0  0  0  0  0  0
   23.2247   72.1429    4.0376 C   0  0  0  0  0  0  0  0  0  0  0  0
   24.2435   72.8547    4.8360 C   0  0  0  0  0  0  0  0  0  0  0  0
   26.0082   73.8268    4.6057 H   0  0  0  0  0  0  0  0  0  0  0  0
   20.7030   71.2260   -3.8493 O   0  0  0  0  0  0  0  0  0  0  0  0
   20.3948   72.2646   -5.0490 P   0  0  2  0  0  0  0  0  0  0  0  0
   21.6631   72.0783   -6.0360 O   0  0  0  0  0  0  0  0  0  0  0  0
   20.1648   73.6773   -4.5960 O   0  0  0  0  0  0  0  0  0  0  0  0
   19.1559   71.6086   -5.8490 O   0  0  0  0  0  0  0  0  0  0  0  0
   18.1295   69.5271   -5.3689 O   0  0  0  0  0  0  0  0  0  0  0  0
   17.4942   69.6510   -9.4471 O   0  0  0  0  0  0  0  0  0  0  0  0
   15.2861   70.0530   -7.6553 O   0  0  0  0  0  0  0  0  0  0  0  0
   19.9859   70.6273   -8.3436 O   0  0  0  0  0  0  0  0  0  0  0  0
   17.6256   70.1969   -8.1318 C   0  0  1  0  0  0  0  0  0  0  0  0
   16.5573   69.5612   -7.2399 C   0  0  1  0  0  0  0  0  0  0  0  0
   19.0238   69.8871   -7.6001 C   0  0  2  0  0  0  0  0  0  0  0  0
   16.8013   69.8924   -5.7614 C   0  0  1  0  0  0  0  0  0  0  0  0
   19.1449   70.2074   -6.1092 C   0  0  1  0  0  0  0  0  0  0  0  0
   16.6088   69.8447   -9.7907 H   0  0  0  0  0  0  0  0  0  0  0  0
   15.1447   69.8378   -8.5906 H   0  0  0  0  0  0  0  0  0  0  0  0
   19.8992   70.4155   -9.2857 H   0  0  0  0  0  0  0  0  0  0  0  0
   15.3142   68.0343   -5.5491 O   0  0  0  0  0  0  0  0  0  0  0  0
   15.8417   69.1410   -4.8411 C   0  0  0  0  0  0  0  0  0  0  0  0
   14.7019   67.5465   -4.9756 H   0  0  0  0  0  0  0  0  0  0  0  0
 25 28  1  0
 25 24  1  0
 25 26  1  6
 25 27  2  0
  1  4  1  0
  1 24  1  0
  1  2  1  6
  1  3  2  0
  6 11  1  0
  6 12  1  0
 29 36  1  0
 29 37  1  0
  9  7  1  6
  7 13  1  0
 10  8  1  6
  8 14  1  0
 37 28  1  6
  4  5  1  0
 33 30  1  6
 30 38  1  0
 34 31  1  6
 31 39  1  0
 35 32  1  6
 32 40  1  0
 41 42  1  0
 41 43  1  0
 15 19  2  0
 16 22  2  0
 12 17  1  1
 17 19  1  0
 17 20  1  0
 18 19  1  0
 18 22  1  0
 18 23  1  0
  9 10  1  0
  9 11  1  0
 10 12  1  0
 11  5  1  1
 33 34  1  0
 33 35  1  0
 34 36  1  0
 35 37  1  0
 36 42  1  1
 20 21  2  0
 21 22  1  0
M  CHG  2   2  -1  26  -1
M  END
>  <COMPND>  (70) 
    8629 

>  <AUTHOR>  (70) 
    GENERATED BY OPEN BABEL 3.1.1

>  <MASTER>  (70) 
        0    0    0    0    0    0    0    0   58    0   58    0

>  <minimizedAffinity>  (70) 
-7.45176

>  <CNNscore>  (70) 
0.5638905764

>  <CNNaffinity>  (70) 
4.3561868668

>  <CNN_VS>  (70) 
2.4564127922

>  <CNNaffinity_variance>  (70) 
0.1928151101

$$$$
71
     RDKit          3D

 43 45  0  0  0  0  0  0  0  0999 V2000
   19.1624   72.8470   -0.8926 P   0  0  2  0  0  0  0  0  0  0  0  0
   18.9848   74.3251   -1.5259 O   0  0  0  0  0  0  0  0  0  0  0  0
   17.8894   72.1940   -0.4404 O   0  0  0  0  0  0  0  0  0  0  0  0
   20.2934   73.0461    0.2472 O   0  0  0  0  0  0  0  0  0  0  0  0
   19.8772   73.3555    1.5659 C   0  0  0  0  0  0  0  0  0  0  0  0
   21.5504   71.6473    1.8033 O   0  0  0  0  0  0  0  0  0  0  0  0
   22.0382   72.7680    4.5413 O   0  0  0  0  0  0  0  0  0  0  0  0
   24.0955   73.8202    3.0932 O   0  0  0  0  0  0  0  0  0  0  0  0
   21.7046   73.4502    3.3336 C   0  0  1  0  0  0  0  0  0  0  0  0
   22.9025   73.4974    2.4082 C   0  0  2  0  0  0  0  0  0  0  0  0
   20.7336   72.5736    2.5525 C   0  0  1  0  0  0  0  0  0  0  0  0
   22.9175   72.0884    1.8401 C   0  0  2  0  0  0  0  0  0  0  0  0
   22.6573   73.3087    5.0574 H   0  0  0  0  0  0  0  0  0  0  0  0
   24.0370   74.7258    3.4356 H   0  0  0  0  0  0  0  0  0  0  0  0
   24.4253   69.9335    0.8100 O   0  0  0  0  0  0  0  0  0  0  0  0
   24.9464   72.0101   -3.2714 O   0  0  0  0  0  0  0  0  0  0  0  0
   23.4591   72.0394    0.5113 N   0  0  0  0  0  0  0  0  0  0  0  0
   24.6834   70.9692   -1.2214 N   0  0  0  0  0  0  0  0  0  0  0  0
   24.2027   70.9113    0.0930 C   0  0  0  0  0  0  0  0  0  0  0  0
   23.2509   73.1017   -0.3616 C   0  0  0  0  0  0  0  0  0  0  0  0
   23.7171   73.1420   -1.6115 C   0  0  0  0  0  0  0  0  0  0  0  0
   24.5040   72.0030   -2.1268 C   0  0  0  0  0  0  0  0  0  0  0  0
   25.2045   70.1945   -1.5346 H   0  0  0  0  0  0  0  0  0  0  0  0
   19.9534   72.0469   -2.0533 O   0  0  0  0  0  0  0  0  0  0  0  0
   20.4427   70.5086   -2.1379 P   0  0  2  0  0  0  0  0  0  0  0  0
   20.3537   70.0060   -0.6027 O   0  0  0  0  0  0  0  0  0  0  0  0
   21.7910   70.3257   -2.7723 O   0  0  0  0  0  0  0  0  0  0  0  0
   19.2399   69.7381   -2.8894 O   0  0  0  0  0  0  0  0  0  0  0  0
   18.5979   71.1385   -4.6903 O   0  0  0  0  0  0  0  0  0  0  0  0
   15.8843   68.0746   -5.2373 O   0  0  0  0  0  0  0  0  0  0  0  0
   18.0805   68.3666   -7.0647 O   0  0  0  0  0  0  0  0  0  0  0  0
   16.5717   68.9338   -2.5599 O   0  0  0  0  0  0  0  0  0  0  0  0
   17.1438   68.6517   -4.8824 C   0  0  1  0  0  0  0  0  0  0  0  0
   17.7102   69.3612   -6.1139 C   0  0  1  0  0  0  0  0  0  0  0  0
   16.9343   69.6433   -3.7395 C   0  0  2  0  0  0  0  0  0  0  0  0
   18.9231   70.2264   -5.7458 C   0  0  1  0  0  0  0  0  0  0  0  0
   18.1851   70.4871   -3.4874 C   0  0  1  0  0  0  0  0  0  0  0  0
   16.0104   67.4436   -5.9622 H   0  0  0  0  0  0  0  0  0  0  0  0
   17.3059   67.8270   -7.2882 H   0  0  0  0  0  0  0  0  0  0  0  0
   15.7784   68.4038   -2.7324 H   0  0  0  0  0  0  0  0  0  0  0  0
   18.3624   71.1450   -7.8790 O   0  0  0  0  0  0  0  0  0  0  0  0
   19.4070   71.0650   -6.9268 C   0  0  0  0  0  0  0  0  0  0  0  0
   18.6560   71.6762   -8.6363 H   0  0  0  0  0  0  0  0  0  0  0  0
 25 28  1  0
 25 24  1  0
 25 26  1  1
 25 27  2  0
  1  4  1  0
  1 24  1  0
  1  2  1  6
  1  3  2  0
  6 11  1  0
  6 12  1  0
 29 36  1  0
 29 37  1  0
  9  7  1  1
  7 13  1  0
 10  8  1  1
  8 14  1  0
 37 28  1  6
  4  5  1  0
 33 30  1  6
 30 38  1  0
 34 31  1  6
 31 39  1  0
 35 32  1  1
 32 40  1  0
 41 42  1  0
 41 43  1  0
 15 19  2  0
 16 22  2  0
 12 17  1  6
 17 19  1  0
 17 20  1  0
 18 19  1  0
 18 22  1  0
 18 23  1  0
  9 10  1  0
  9 11  1  0
 10 12  1  0
 11  5  1  6
 33 34  1  0
 33 35  1  0
 34 36  1  0
 35 37  1  0
 36 42  1  6
 20 21  2  0
 21 22  1  0
M  CHG  2   2  -1  26  -1
M  END
>  <COMPND>  (71) 
    8629 

>  <AUTHOR>  (71) 
    GENERATED BY OPEN BABEL 3.1.1

>  <MASTER>  (71) 
        0    0    0    0    0    0    0    0   58    0   58    0

>  <minimizedAffinity>  (71) 
-7.10301

>  <CNNscore>  (71) 
0.4700223207

>  <CNNaffinity>  (71) 
3.9952301979

>  <CNN_VS>  (71) 
1.8778473139

>  <CNNaffinity_variance>  (71) 
0.4783799052

$$$$
72
     RDKit          3D

 43 45  0  0  0  0  0  0  0  0999 V2000
   21.6922   70.7150    0.3020 P   0  0  2  0  0  0  0  0  0  0  0  0
   22.9900   69.8305    0.6905 O   0  0  0  0  0  0  0  0  0  0  0  0
   21.0045   71.3744    1.4612 O   0  0  0  0  0  0  0  0  0  0  0  0
   20.7810   69.7042   -0.5731 O   0  0  0  0  0  0  0  0  0  0  0  0
   20.4370   70.0774   -1.8960 C   0  0  0  0  0  0  0  0  0  0  0  0
   18.8755   71.4538   -3.0965 O   0  0  0  0  0  0  0  0  0  0  0  0
   16.7468   70.1868   -1.4070 O   0  0  0  0  0  0  0  0  0  0  0  0
   16.5250   68.8276   -3.7607 O   0  0  0  0  0  0  0  0  0  0  0  0
   17.9366   69.6094   -1.9421 C   0  0  1  0  0  0  0  0  0  0  0  0
   17.7846   69.3766   -3.4308 C   0  0  2  0  0  0  0  0  0  0  0  0
   19.0330   70.6664   -1.8959 C   0  0  1  0  0  0  0  0  0  0  0  0
   17.9770   70.7760   -3.9899 C   0  0  2  0  0  0  0  0  0  0  0  0
   16.0323   69.5303   -1.4258 H   0  0  0  0  0  0  0  0  0  0  0  0
   16.4510   67.9375   -3.3826 H   0  0  0  0  0  0  0  0  0  0  0  0
   16.4755   70.6751   -6.3802 O   0  0  0  0  0  0  0  0  0  0  0  0
   20.2764   70.7401   -8.9860 O   0  0  0  0  0  0  0  0  0  0  0  0
   18.5485   70.7658   -5.3070 N   0  0  0  0  0  0  0  0  0  0  0  0
   18.3693   70.7077   -7.6757 N   0  0  0  0  0  0  0  0  0  0  0  0
   17.7061   70.7127   -6.4419 C   0  0  0  0  0  0  0  0  0  0  0  0
   19.9296   70.8086   -5.4634 C   0  0  0  0  0  0  0  0  0  0  0  0
   20.5464   70.8019   -6.6470 C   0  0  0  0  0  0  0  0  0  0  0  0
   19.7390   70.7477   -7.8828 C   0  0  0  0  0  0  0  0  0  0  0  0
   17.8028   70.6707   -8.4804 H   0  0  0  0  0  0  0  0  0  0  0  0
   22.2689   71.7382   -0.8086 O   0  0  0  0  0  0  0  0  0  0  0  0
   23.7862   72.0944   -1.2376 P   0  0  2  0  0  0  0  0  0  0  0  0
   23.6246   73.4806   -2.0561 O   0  0  0  0  0  0  0  0  0  0  0  0
   24.4828   71.0036   -1.9984 O   0  0  0  0  0  0  0  0  0  0  0  0
   24.5119   72.5171    0.1407 O   0  0  0  0  0  0  0  0  0  0  0  0
   23.4512   73.2776    2.1189 O   0  0  0  0  0  0  0  0  0  0  0  0
   27.0097   75.3474    2.4407 O   0  0  0  0  0  0  0  0  0  0  0  0
   26.5020   73.1208    4.1821 O   0  0  0  0  0  0  0  0  0  0  0  0
   25.7639   75.0116   -0.1505 O   0  0  0  0  0  0  0  0  0  0  0  0
   26.1730   74.2405    2.0943 C   0  0  1  0  0  0  0  0  0  0  0  0
   25.5014   73.7292    3.3704 C   0  0  1  0  0  0  0  0  0  0  0  0
   25.1252   74.7038    1.0839 C   0  0  2  0  0  0  0  0  0  0  0  0
   24.3906   72.7212    3.0461 C   0  0  1  0  0  0  0  0  0  0  0  0
   24.0402   73.6468    0.8704 C   0  0  1  0  0  0  0  0  0  0  0  0
   27.6775   75.0598    3.0817 H   0  0  0  0  0  0  0  0  0  0  0  0
   27.1976   73.7677    4.3792 H   0  0  0  0  0  0  0  0  0  0  0  0
   26.4483   75.6820   -0.0020 H   0  0  0  0  0  0  0  0  0  0  0  0
   22.2214   72.3895    3.9913 O   0  0  0  0  0  0  0  0  0  0  0  0
   23.6032   72.3177    4.2908 C   0  0  0  0  0  0  0  0  0  0  0  0
   21.7078   72.1350    4.7743 H   0  0  0  0  0  0  0  0  0  0  0  0
 25 28  1  0
 25 24  1  0
 25 26  1  6
 25 27  2  0
  1  4  1  0
  1 24  1  0
  1  2  1  1
  1  3  2  0
  6 11  1  0
  6 12  1  0
 29 36  1  0
 29 37  1  0
  9  7  1  6
  7 13  1  0
 10  8  1  1
  8 14  1  0
 37 28  1  1
  4  5  1  0
 33 30  1  1
 30 38  1  0
 34 31  1  1
 31 39  1  0
 35 32  1  6
 32 40  1  0
 41 42  1  0
 41 43  1  0
 15 19  2  0
 16 22  2  0
 12 17  1  6
 17 19  1  0
 17 20  1  0
 18 19  1  0
 18 22  1  0
 18 23  1  0
  9 10  1  0
  9 11  1  0
 10 12  1  0
 11  5  1  6
 33 34  1  0
 33 35  1  0
 34 36  1  0
 35 37  1  0
 36 42  1  1
 20 21  2  0
 21 22  1  0
M  CHG  2   2  -1  26  -1
M  END
>  <COMPND>  (72) 
    8629 

>  <AUTHOR>  (72) 
    GENERATED BY OPEN BABEL 3.1.1

>  <MASTER>  (72) 
        0    0    0    0    0    0    0    0   58    0   58    0

>  <minimizedAffinity>  (72) 
-6.91778

>  <CNNscore>  (72) 
0.4414311349

>  <CNNaffinity>  (72) 
4.3115386963

>  <CNN_VS>  (72) 
1.9032474756

>  <CNNaffinity_variance>  (72) 
0.0444217995

$$$$
73
     RDKit          3D

 43 45  0  0  0  0  0  0  0  0999 V2000
   22.5393   74.9136   -1.5386 P   0  0  2  0  0  0  0  0  0  0  0  0
   23.4299   75.5548   -0.3499 O   0  0  0  0  0  0  0  0  0  0  0  0
   22.1369   75.8749   -2.6182 O   0  0  0  0  0  0  0  0  0  0  0  0
   21.3239   74.1810   -0.7615 O   0  0  0  0  0  0  0  0  0  0  0  0
   20.5848   74.9249    0.1915 C   0  0  0  0  0  0  0  0  0  0  0  0
   20.5135   72.6452    0.9478 O   0  0  0  0  0  0  0  0  0  0  0  0
   19.4844   73.7355    3.5446 O   0  0  0  0  0  0  0  0  0  0  0  0
   22.1132   73.2658    4.0972 O   0  0  0  0  0  0  0  0  0  0  0  0
   20.4486   74.2909    2.6517 C   0  0  1  0  0  0  0  0  0  0  0  0
   21.7580   73.5373    2.7567 C   0  0  2  0  0  0  0  0  0  0  0  0
   20.0099   73.9696    1.2284 C   0  0  1  0  0  0  0  0  0  0  0  0
   21.4601   72.2760    1.9639 C   0  0  2  0  0  0  0  0  0  0  0  0
   19.7430   73.9282    4.4600 H   0  0  0  0  0  0  0  0  0  0  0  0
   22.2930   74.0994    4.5594 H   0  0  0  0  0  0  0  0  0  0  0  0
   21.5822   69.7362    0.7342 O   0  0  0  0  0  0  0  0  0  0  0  0
   26.0092   70.3030   -0.4155 O   0  0  0  0  0  0  0  0  0  0  0  0
   22.6318   71.7348    1.3351 N   0  0  0  0  0  0  0  0  0  0  0  0
   23.7864   70.0205    0.1626 N   0  0  0  0  0  0  0  0  0  0  0  0
   22.5879   70.4490    0.7475 C   0  0  0  0  0  0  0  0  0  0  0  0
   23.8076   72.4768    1.3051 C   0  0  0  0  0  0  0  0  0  0  0  0
   24.9423   72.0534    0.7444 C   0  0  0  0  0  0  0  0  0  0  0  0
   24.9811   70.7207    0.1083 C   0  0  0  0  0  0  0  0  0  0  0  0
   23.7796   69.1276   -0.2527 H   0  0  0  0  0  0  0  0  0  0  0  0
   23.4462   73.6749   -2.0446 O   0  0  0  0  0  0  0  0  0  0  0  0
   24.2485   73.4423   -3.4285 P   0  0  2  0  0  0  0  0  0  0  0  0
   24.8206   71.9365   -3.2771 O   0  0  0  0  0  0  0  0  0  0  0  0
   25.2978   74.4776   -3.7129 O   0  0  0  0  0  0  0  0  0  0  0  0
   23.0973   73.3298   -4.5541 O   0  0  0  0  0  0  0  0  0  0  0  0
   21.5614   71.6695   -3.8464 O   0  0  0  0  0  0  0  0  0  0  0  0
   19.9235   72.5554   -7.5319 O   0  0  0  0  0  0  0  0  0  0  0  0
   18.5914   73.4275   -5.1417 O   0  0  0  0  0  0  0  0  0  0  0  0
   22.7993   72.4770   -7.2110 O   0  0  0  0  0  0  0  0  0  0  0  0
   20.5981   72.8403   -6.3034 C   0  0  1  0  0  0  0  0  0  0  0  0
   19.6603   72.4852   -5.1479 C   0  0  1  0  0  0  0  0  0  0  0  0
   21.8777   72.0091   -6.2322 C   0  0  2  0  0  0  0  0  0  0  0  0
   20.4022   72.5099   -3.8047 C   0  0  1  0  0  0  0  0  0  0  0  0
   22.5096   72.0633   -4.8402 C   0  0  1  0  0  0  0  0  0  0  0  0
   19.1103   73.0804   -7.5836 H   0  0  0  0  0  0  0  0  0  0  0  0
   18.1315   73.4022   -5.9955 H   0  0  0  0  0  0  0  0  0  0  0  0
   22.3875   72.4375   -8.0878 H   0  0  0  0  0  0  0  0  0  0  0  0
   20.3680   71.4737   -1.6520 O   0  0  0  0  0  0  0  0  0  0  0  0
   19.5273   72.0066   -2.6587 C   0  0  0  0  0  0  0  0  0  0  0  0
   19.8248   71.1498   -0.9160 H   0  0  0  0  0  0  0  0  0  0  0  0
 25 28  1  0
 25 24  1  0
 25 26  1  1
 25 27  2  0
  1  4  1  0
  1 24  1  0
  1  2  1  1
  1  3  2  0
  6 11  1  0
  6 12  1  0
 29 36  1  0
 29 37  1  0
  9  7  1  1
  7 13  1  0
 10  8  1  1
  8 14  1  0
 37 28  1  1
  4  5  1  0
 33 30  1  6
 30 38  1  0
 34 31  1  1
 31 39  1  0
 35 32  1  6
 32 40  1  0
 41 42  1  0
 41 43  1  0
 15 19  2  0
 16 22  2  0
 12 17  1  6
 17 19  1  0
 17 20  1  0
 18 19  1  0
 18 22  1  0
 18 23  1  0
  9 10  1  0
  9 11  1  0
 10 12  1  0
 11  5  1  6
 33 34  1  0
 33 35  1  0
 34 36  1  0
 35 37  1  0
 36 42  1  1
 20 21  2  0
 21 22  1  0
M  CHG  2   2  -1  26  -1
M  END
>  <COMPND>  (73) 
    8629 

>  <AUTHOR>  (73) 
    GENERATED BY OPEN BABEL 3.1.1

>  <MASTER>  (73) 
        0    0    0    0    0    0    0    0   58    0   58    0

>  <minimizedAffinity>  (73) 
-5.80171

>  <CNNscore>  (73) 
0.4316185713

>  <CNNaffinity>  (73) 
3.6213202477

>  <CNN_VS>  (73) 
1.5630290508

>  <CNNaffinity_variance>  (73) 
0.8107018471

$$$$
74
     RDKit          3D

 43 45  0  0  0  0  0  0  0  0999 V2000
   23.9686   71.4742   -2.8038 P   0  0  2  0  0  0  0  0  0  0  0  0
   22.7665   70.3944   -2.7242 O   0  0  0  0  0  0  0  0  0  0  0  0
   25.3422   70.8849   -2.9359 O   0  0  0  0  0  0  0  0  0  0  0  0
   23.7300   72.4171   -1.5107 O   0  0  0  0  0  0  0  0  0  0  0  0
   24.5931   72.2682   -0.3969 C   0  0  0  0  0  0  0  0  0  0  0  0
   24.8708   71.0860    1.6765 O   0  0  0  0  0  0  0  0  0  0  0  0
   22.1895   69.8635    1.1225 O   0  0  0  0  0  0  0  0  0  0  0  0
   21.5923   71.8080    2.9388 O   0  0  0  0  0  0  0  0  0  0  0  0
   22.6546   71.1829    0.8430 C   0  0  1  0  0  0  0  0  0  0  0  0
   22.7276   71.9959    2.1187 C   0  0  2  0  0  0  0  0  0  0  0  0
   24.1213   71.0883    0.4417 C   0  0  1  0  0  0  0  0  0  0  0  0
   24.0025   71.4692    2.7554 C   0  0  2  0  0  0  0  0  0  0  0  0
   21.2546   69.8984    1.3808 H   0  0  0  0  0  0  0  0  0  0  0  0
   20.8074   72.1592    2.4900 H   0  0  0  0  0  0  0  0  0  0  0  0
   23.1825   72.2312    5.3487 O   0  0  0  0  0  0  0  0  0  0  0  0
   26.6157   75.2814    5.7366 O   0  0  0  0  0  0  0  0  0  0  0  0
   24.6640   72.4598    3.5570 N   0  0  0  0  0  0  0  0  0  0  0  0
   24.8928   73.7492    5.5398 N   0  0  0  0  0  0  0  0  0  0  0  0
   24.1711   72.7695    4.8460 C   0  0  0  0  0  0  0  0  0  0  0  0
   25.7887   73.1123    3.0638 C   0  0  0  0  0  0  0  0  0  0  0  0
   26.4648   74.0451    3.7375 C   0  0  0  0  0  0  0  0  0  0  0  0
   26.0155   74.4271    5.0918 C   0  0  0  0  0  0  0  0  0  0  0  0
   24.5675   73.9816    6.4398 H   0  0  0  0  0  0  0  0  0  0  0  0
   23.5231   72.4242   -4.0334 O   0  0  0  0  0  0  0  0  0  0  0  0
   23.7083   74.0127   -4.2688 P   0  0  2  0  0  0  0  0  0  0  0  0
   25.2731   74.2567   -3.9383 O   0  0  0  0  0  0  0  0  0  0  0  0
   22.7663   74.8669   -3.4708 O   0  0  0  0  0  0  0  0  0  0  0  0
   23.5945   74.2048   -5.8672 O   0  0  0  0  0  0  0  0  0  0  0  0
   22.7220   75.7480   -7.4401 O   0  0  0  0  0  0  0  0  0  0  0  0
   20.9157   72.3025   -8.8245 O   0  0  0  0  0  0  0  0  0  0  0  0
   23.0669   73.4759  -10.3224 O   0  0  0  0  0  0  0  0  0  0  0  0
   21.2051   72.7372   -5.9773 O   0  0  0  0  0  0  0  0  0  0  0  0
   21.9637   73.0787   -8.2376 C   0  0  1  0  0  0  0  0  0  0  0  0
   22.4008   74.1383   -9.2510 C   0  0  1  0  0  0  0  0  0  0  0  0
   21.4425   73.7376   -6.9618 C   0  0  2  0  0  0  0  0  0  0  0  0
   23.3296   75.1743   -8.6036 C   0  0  1  0  0  0  0  0  0  0  0  0
   22.4200   74.7860   -6.4276 C   0  0  1  0  0  0  0  0  0  0  0  0
   21.2403   71.8810   -9.6348 H   0  0  0  0  0  0  0  0  0  0  0  0
   22.4698   72.8241  -10.7222 H   0  0  0  0  0  0  0  0  0  0  0  0
   20.5846   72.0798   -6.3275 H   0  0  0  0  0  0  0  0  0  0  0  0
   24.6943   75.9178  -10.4184 O   0  0  0  0  0  0  0  0  0  0  0  0
   23.6512   76.3265   -9.5529 C   0  0  0  0  0  0  0  0  0  0  0  0
   24.9094   76.6411  -11.0285 H   0  0  0  0  0  0  0  0  0  0  0  0
 25 28  1  0
 25 24  1  0
 25 26  1  1
 25 27  2  0
  1  4  1  0
  1 24  1  0
  1  2  1  1
  1  3  2  0
  6 11  1  0
  6 12  1  0
 29 36  1  0
 29 37  1  0
  9  7  1  1
  7 13  1  0
 10  8  1  1
  8 14  1  0
 37 28  1  6
  4  5  1  0
 33 30  1  6
 30 38  1  0
 34 31  1  6
 31 39  1  0
 35 32  1  1
 32 40  1  0
 41 42  1  0
 41 43  1  0
 15 19  2  0
 16 22  2  0
 12 17  1  6
 17 19  1  0
 17 20  1  0
 18 19  1  0
 18 22  1  0
 18 23  1  0
  9 10  1  0
  9 11  1  0
 10 12  1  0
 11  5  1  6
 33 34  1  0
 33 35  1  0
 34 36  1  0
 35 37  1  0
 36 42  1  6
 20 21  2  0
 21 22  1  0
M  CHG  2   2  -1  26  -1
M  END
>  <COMPND>  (74) 
    8629 

>  <AUTHOR>  (74) 
    GENERATED BY OPEN BABEL 3.1.1

>  <MASTER>  (74) 
        0    0    0    0    0    0    0    0   58    0   58    0

>  <minimizedAffinity>  (74) 
-7.03637

>  <CNNscore>  (74) 
0.4312339127

>  <CNNaffinity>  (74) 
3.9798133373

>  <CNN_VS>  (74) 
1.7162305117

>  <CNNaffinity_variance>  (74) 
0.1806552112

$$$$
75
     RDKit          3D

 43 45  0  0  0  0  0  0  0  0999 V2000
   20.7779   71.3126   -3.5703 P   0  0  2  0  0  0  0  0  0  0  0  0
   20.7419   70.7567   -5.0892 O   0  0  0  0  0  0  0  0  0  0  0  0
   20.2359   72.7002   -3.3902 O   0  0  0  0  0  0  0  0  0  0  0  0
   22.3144   71.0936   -3.1129 O   0  0  0  0  0  0  0  0  0  0  0  0
   22.7573   71.7076   -1.9151 C   0  0  0  0  0  0  0  0  0  0  0  0
   24.1223   70.9300   -0.0969 O   0  0  0  0  0  0  0  0  0  0  0  0
   21.7330   69.3393    0.7702 O   0  0  0  0  0  0  0  0  0  0  0  0
   21.6634   71.4827    2.4548 O   0  0  0  0  0  0  0  0  0  0  0  0
   21.7870   70.6365    0.1788 C   0  0  1  0  0  0  0  0  0  0  0  0
   22.2692   71.6557    1.1900 C   0  0  2  0  0  0  0  0  0  0  0  0
   22.9188   70.6404   -0.8412 C   0  0  1  0  0  0  0  0  0  0  0  0
   23.7648   71.3898    1.2167 C   0  0  2  0  0  0  0  0  0  0  0  0
   21.0172   69.3123    1.4251 H   0  0  0  0  0  0  0  0  0  0  0  0
   20.7129   71.6631    2.3856 H   0  0  0  0  0  0  0  0  0  0  0  0
   26.3600   71.3711    2.3313 O   0  0  0  0  0  0  0  0  0  0  0  0
   26.5863   75.9744    2.3437 O   0  0  0  0  0  0  0  0  0  0  0  0
   24.5253   72.5689    1.5211 N   0  0  0  0  0  0  0  0  0  0  0  0
   26.4706   73.6632    2.3364 N   0  0  0  0  0  0  0  0  0  0  0  0
   25.8192   72.4500    2.0799 C   0  0  0  0  0  0  0  0  0  0  0  0
   23.9876   73.8256    1.2652 C   0  0  0  0  0  0  0  0  0  0  0  0
   24.6213   74.9729    1.5167 C   0  0  0  0  0  0  0  0  0  0  0  0
   25.9776   74.9369    2.1008 C   0  0  0  0  0  0  0  0  0  0  0  0
   27.3731   73.6051    2.7261 H   0  0  0  0  0  0  0  0  0  0  0  0
   19.9869   70.1692   -2.7458 O   0  0  0  0  0  0  0  0  0  0  0  0
   18.4051   69.8742   -2.5912 P   0  0  2  0  0  0  0  0  0  0  0  0
   17.8490   71.2060   -1.8601 O   0  0  0  0  0  0  0  0  0  0  0  0
   18.0849   68.5946   -1.8743 O   0  0  0  0  0  0  0  0  0  0  0  0
   17.8244   69.9619   -4.0946 O   0  0  0  0  0  0  0  0  0  0  0  0
   17.1057   72.0794   -4.8795 O   0  0  0  0  0  0  0  0  0  0  0  0
   15.1702   69.6692   -7.6173 O   0  0  0  0  0  0  0  0  0  0  0  0
   17.4441   71.2148   -8.4470 O   0  0  0  0  0  0  0  0  0  0  0  0
   15.3638   68.8437   -4.8495 O   0  0  0  0  0  0  0  0  0  0  0  0
   16.2342   70.0528   -6.7421 C   0  0  1  0  0  0  0  0  0  0  0  0
   16.7716   71.4081   -7.2058 C   0  0  1  0  0  0  0  0  0  0  0  0
   15.6974   70.1469   -5.3151 C   0  0  2  0  0  0  0  0  0  0  0  0
   17.7286   72.0092   -6.1675 C   0  0  1  0  0  0  0  0  0  0  0  0
   16.7085   70.8035   -4.3734 C   0  0  1  0  0  0  0  0  0  0  0  0
   15.5044   69.6072   -8.5250 H   0  0  0  0  0  0  0  0  0  0  0  0
   16.8289   70.8344   -9.0936 H   0  0  0  0  0  0  0  0  0  0  0  0
   14.7229   68.4388   -5.4539 H   0  0  0  0  0  0  0  0  0  0  0  0
   17.1661   73.9881   -7.3827 O   0  0  0  0  0  0  0  0  0  0  0  0
   18.1532   73.4292   -6.5356 C   0  0  0  0  0  0  0  0  0  0  0  0
   17.4229   74.8920   -7.6249 H   0  0  0  0  0  0  0  0  0  0  0  0
 25 28  1  0
 25 24  1  0
 25 26  1  1
 25 27  2  0
  1  4  1  0
  1 24  1  0
  1  2  1  6
  1  3  2  0
  6 11  1  0
  6 12  1  0
 29 36  1  0
 29 37  1  0
  9  7  1  1
  7 13  1  0
 10  8  1  1
  8 14  1  0
 37 28  1  6
  4  5  1  0
 33 30  1  6
 30 38  1  0
 34 31  1  6
 31 39  1  0
 35 32  1  1
 32 40  1  0
 41 42  1  0
 41 43  1  0
 15 19  2  0
 16 22  2  0
 12 17  1  6
 17 19  1  0
 17 20  1  0
 18 19  1  0
 18 22  1  0
 18 23  1  0
  9 10  1  0
  9 11  1  0
 10 12  1  0
 11  5  1  6
 33 34  1  0
 33 35  1  0
 34 36  1  0
 35 37  1  0
 36 42  1  6
 20 21  2  0
 21 22  1  0
M  CHG  2   2  -1  26  -1
M  END
>  <COMPND>  (75) 
    8629 

>  <AUTHOR>  (75) 
    GENERATED BY OPEN BABEL 3.1.1

>  <MASTER>  (75) 
        0    0    0    0    0    0    0    0   58    0   58    0

>  <minimizedAffinity>  (75) 
-7.37523

>  <CNNscore>  (75) 
0.4285978377

>  <CNNaffinity>  (75) 
4.0919771194

>  <CNN_VS>  (75) 
1.7538125515

>  <CNNaffinity_variance>  (75) 
0.0974232182

$$$$
76
     RDKit          3D

 43 45  0  0  0  0  0  0  0  0999 V2000
   23.1877   72.2799   -3.1824 P   0  0  2  0  0  0  0  0  0  0  0  0
   24.1192   72.3981   -4.4999 O   0  0  0  0  0  0  0  0  0  0  0  0
   22.9435   73.5726   -2.4608 O   0  0  0  0  0  0  0  0  0  0  0  0
   23.8921   71.1117   -2.3123 O   0  0  0  0  0  0  0  0  0  0  0  0
   24.3551   71.4243   -1.0101 C   0  0  0  0  0  0  0  0  0  0  0  0
   24.5750   70.4735    1.1856 O   0  0  0  0  0  0  0  0  0  0  0  0
   21.7677   69.4808    0.8329 O   0  0  0  0  0  0  0  0  0  0  0  0
   21.4271   71.6784    2.4112 O   0  0  0  0  0  0  0  0  0  0  0  0
   22.3555   70.7019    0.3873 C   0  0  1  0  0  0  0  0  0  0  0  0
   22.5498   71.6482    1.5537 C   0  0  2  0  0  0  0  0  0  0  0  0
   23.7920   70.4077   -0.0264 C   0  0  1  0  0  0  0  0  0  0  0  0
   23.7836   71.0704    2.2260 C   0  0  2  0  0  0  0  0  0  0  0  0
   20.8495   69.6434    1.1022 H   0  0  0  0  0  0  0  0  0  0  0  0
   20.6684   72.0539    1.9378 H   0  0  0  0  0  0  0  0  0  0  0  0
   23.3310   71.9587    4.8687 O   0  0  0  0  0  0  0  0  0  0  0  0
   26.8499   74.9282    4.6682 O   0  0  0  0  0  0  0  0  0  0  0  0
   24.5666   72.0743    2.8896 N   0  0  0  0  0  0  0  0  0  0  0  0
   25.0836   73.4364    4.7668 N   0  0  0  0  0  0  0  0  0  0  0  0
   24.2555   72.4492    4.2174 C   0  0  0  0  0  0  0  0  0  0  0  0
   25.6297   72.6757    2.2247 C   0  0  0  0  0  0  0  0  0  0  0  0
   26.4089   73.6165    2.7623 C   0  0  0  0  0  0  0  0  0  0  0  0
   26.1513   74.0650    4.1459 C   0  0  0  0  0  0  0  0  0  0  0  0
   24.8855   73.7138    5.6907 H   0  0  0  0  0  0  0  0  0  0  0  0
   21.8535   71.5604   -3.7439 O   0  0  0  0  0  0  0  0  0  0  0  0
   20.5762   70.9408   -2.9710 P   0  0  2  0  0  0  0  0  0  0  0  0
   20.0655   72.1711   -2.0527 O   0  0  0  0  0  0  0  0  0  0  0  0
   20.8694   69.6802   -2.2101 O   0  0  0  0  0  0  0  0  0  0  0  0
   19.4444   70.7860   -4.1112 O   0  0  0  0  0  0  0  0  0  0  0  0
   17.3338   71.7595   -4.5739 O   0  0  0  0  0  0  0  0  0  0  0  0
   16.3616   67.7842   -5.1240 O   0  0  0  0  0  0  0  0  0  0  0  0
   16.5767   69.5197   -7.4022 O   0  0  0  0  0  0  0  0  0  0  0  0
   18.1708   68.5473   -2.9971 O   0  0  0  0  0  0  0  0  0  0  0  0
   17.2064   68.9373   -5.1694 C   0  0  1  0  0  0  0  0  0  0  0  0
   16.5364   69.9880   -6.0570 C   0  0  1  0  0  0  0  0  0  0  0  0
   17.3963   69.4731   -3.7516 C   0  0  2  0  0  0  0  0  0  0  0  0
   17.2456   71.3441   -5.9419 C   0  0  1  0  0  0  0  0  0  0  0  0
   18.0664   70.8482   -3.7525 C   0  0  1  0  0  0  0  0  0  0  0  0
   16.2375   67.4387   -6.0211 H   0  0  0  0  0  0  0  0  0  0  0  0
   16.1260   68.6626   -7.4610 H   0  0  0  0  0  0  0  0  0  0  0  0
   17.7359   67.6809   -3.0039 H   0  0  0  0  0  0  0  0  0  0  0  0
   16.6707   72.2315   -8.0845 O   0  0  0  0  0  0  0  0  0  0  0  0
   16.5014   72.4445   -6.6952 C   0  0  0  0  0  0  0  0  0  0  0  0
   16.2021   72.9243   -8.5767 H   0  0  0  0  0  0  0  0  0  0  0  0
 25 28  1  0
 25 24  1  0
 25 26  1  1
 25 27  2  0
  1  4  1  0
  1 24  1  0
  1  2  1  6
  1  3  2  0
  6 11  1  0
  6 12  1  0
 29 36  1  0
 29 37  1  0
  9  7  1  1
  7 13  1  0
 10  8  1  1
  8 14  1  0
 37 28  1  6
  4  5  1  0
 33 30  1  1
 30 38  1  0
 34 31  1  6
 31 39  1  0
 35 32  1  1
 32 40  1  0
 41 42  1  0
 41 43  1  0
 15 19  2  0
 16 22  2  0
 12 17  1  6
 17 19  1  0
 17 20  1  0
 18 19  1  0
 18 22  1  0
 18 23  1  0
  9 10  1  0
  9 11  1  0
 10 12  1  0
 11  5  1  6
 33 34  1  0
 33 35  1  0
 34 36  1  0
 35 37  1  0
 36 42  1  6
 20 21  2  0
 21 22  1  0
M  CHG  2   2  -1  26  -1
M  END
>  <COMPND>  (76) 
    8629 

>  <AUTHOR>  (76) 
    GENERATED BY OPEN BABEL 3.1.1

>  <MASTER>  (76) 
        0    0    0    0    0    0    0    0   58    0   58    0

>  <minimizedAffinity>  (76) 
-7.86914

>  <CNNscore>  (76) 
0.4260341227

>  <CNNaffinity>  (76) 
4.0604763031

>  <CNN_VS>  (76) 
1.7299014330

>  <CNNaffinity_variance>  (76) 
0.1900900900

$$$$
77
     RDKit          3D

 43 45  0  0  0  0  0  0  0  0999 V2000
   17.8111   72.5376   -1.3872 P   0  0  2  0  0  0  0  0  0  0  0  0
   17.2161   73.5016   -2.5423 O   0  0  0  0  0  0  0  0  0  0  0  0
   16.9637   72.4290   -0.1537 O   0  0  0  0  0  0  0  0  0  0  0  0
   19.3159   73.0869   -1.1598 O   0  0  0  0  0  0  0  0  0  0  0  0
   20.0441   72.6191   -0.0380 C   0  0  0  0  0  0  0  0  0  0  0  0
   21.1811   71.2852   -1.6816 O   0  0  0  0  0  0  0  0  0  0  0  0
   21.8304   69.4073    0.5640 O   0  0  0  0  0  0  0  0  0  0  0  0
   24.1582   70.7942    0.2571 O   0  0  0  0  0  0  0  0  0  0  0  0
   21.7480   70.8315    0.5742 C   0  0  1  0  0  0  0  0  0  0  0  0
   22.9543   71.4330   -0.1162 C   0  0  2  0  0  0  0  0  0  0  0  0
   20.6123   71.2425   -0.3546 C   0  0  1  0  0  0  0  0  0  0  0  0
   22.6135   71.2271   -1.5823 C   0  0  2  0  0  0  0  0  0  0  0  0
   22.5488   69.1210    1.1505 H   0  0  0  0  0  0  0  0  0  0  0  0
   24.3313   70.9546    1.1979 H   0  0  0  0  0  0  0  0  0  0  0  0
   25.1587   71.0560   -2.7949 O   0  0  0  0  0  0  0  0  0  0  0  0
   24.6875   75.1832   -4.7913 O   0  0  0  0  0  0  0  0  0  0  0  0
   23.1808   72.2423   -2.4243 N   0  0  0  0  0  0  0  0  0  0  0  0
   24.9220   73.1111   -3.7881 N   0  0  0  0  0  0  0  0  0  0  0  0
   24.4670   72.0589   -2.9831 C   0  0  0  0  0  0  0  0  0  0  0  0
   22.4635   73.4040   -2.6886 C   0  0  0  0  0  0  0  0  0  0  0  0
   22.9120   74.3986   -3.4573 C   0  0  0  0  0  0  0  0  0  0  0  0
   24.2470   74.2859   -4.0795 C   0  0  0  0  0  0  0  0  0  0  0  0
   25.8157   73.0055   -4.1878 H   0  0  0  0  0  0  0  0  0  0  0  0
   18.0479   71.1409   -2.1658 O   0  0  0  0  0  0  0  0  0  0  0  0
   17.0274   69.9404   -2.5266 P   0  0  2  0  0  0  0  0  0  0  0  0
   15.5731   70.5958   -2.2563 O   0  0  0  0  0  0  0  0  0  0  0  0
   17.2830   68.6678   -1.7722 O   0  0  0  0  0  0  0  0  0  0  0  0
   17.1176   69.7961   -4.1316 O   0  0  0  0  0  0  0  0  0  0  0  0
   18.3535   71.0832   -5.6912 O   0  0  0  0  0  0  0  0  0  0  0  0
   15.0000   70.3197   -7.9763 O   0  0  0  0  0  0  0  0  0  0  0  0
   17.4679   68.9852   -8.5900 O   0  0  0  0  0  0  0  0  0  0  0  0
   14.7262   70.8586   -5.1454 O   0  0  0  0  0  0  0  0  0  0  0  0
   16.0099   70.0281   -7.0065 C   0  0  1  0  0  0  0  0  0  0  0  0
   17.3727   70.0930   -7.6989 C   0  0  1  0  0  0  0  0  0  0  0  0
   15.9304   71.0553   -5.8787 C   0  0  2  0  0  0  0  0  0  0  0  0
   18.5161   70.0559   -6.6760 C   0  0  1  0  0  0  0  0  0  0  0  0
   17.1398   70.9652   -4.9464 C   0  0  1  0  0  0  0  0  0  0  0  0
   15.0447   69.6708   -8.6949 H   0  0  0  0  0  0  0  0  0  0  0  0
   16.7400   69.0203   -9.2304 H   0  0  0  0  0  0  0  0  0  0  0  0
   13.9681   70.9183   -5.7467 H   0  0  0  0  0  0  0  0  0  0  0  0
   19.6732   70.8639   -8.6041 O   0  0  0  0  0  0  0  0  0  0  0  0
   19.8774   70.2778   -7.3316 C   0  0  0  0  0  0  0  0  0  0  0  0
   20.5311   71.0112   -9.0330 H   0  0  0  0  0  0  0  0  0  0  0  0
 25 28  1  0
 25 24  1  0
 25 26  1  6
 25 27  2  0
  1  4  1  0
  1 24  1  0
  1  2  1  6
  1  3  2  0
  6 11  1  0
  6 12  1  0
 29 36  1  0
 29 37  1  0
  9  7  1  6
  7 13  1  0
 10  8  1  1
  8 14  1  0
 37 28  1  6
  4  5  1  0
 33 30  1  6
 30 38  1  0
 34 31  1  6
 31 39  1  0
 35 32  1  1
 32 40  1  0
 41 42  1  0
 41 43  1  0
 15 19  2  0
 16 22  2  0
 12 17  1  6
 17 19  1  0
 17 20  1  0
 18 19  1  0
 18 22  1  0
 18 23  1  0
  9 10  1  0
  9 11  1  0
 10 12  1  0
 11  5  1  1
 33 34  1  0
 33 35  1  0
 34 36  1  0
 35 37  1  0
 36 42  1  6
 20 21  2  0
 21 22  1  0
M  CHG  2   2  -1  26  -1
M  END
>  <COMPND>  (77) 
    8629 

>  <AUTHOR>  (77) 
    GENERATED BY OPEN BABEL 3.1.1

>  <MASTER>  (77) 
        0    0    0    0    0    0    0    0   58    0   58    0

>  <minimizedAffinity>  (77) 
-7.58494

>  <CNNscore>  (77) 
0.4245825708

>  <CNNaffinity>  (77) 
4.0195035934

>  <CNN_VS>  (77) 
1.7066111565

>  <CNNaffinity_variance>  (77) 
0.7993138433

$$$$
78
     RDKit          3D

 43 45  0  0  0  0  0  0  0  0999 V2000
   18.3142   72.3745   -1.5814 P   0  0  2  0  0  0  0  0  0  0  0  0
   18.5224   73.5832   -2.6365 O   0  0  0  0  0  0  0  0  0  0  0  0
   18.1624   72.8011   -0.1509 O   0  0  0  0  0  0  0  0  0  0  0  0
   19.5477   71.3736   -1.8890 O   0  0  0  0  0  0  0  0  0  0  0  0
   20.3311   70.9121   -0.8023 C   0  0  0  0  0  0  0  0  0  0  0  0
   21.8809   72.5960   -0.0700 O   0  0  0  0  0  0  0  0  0  0  0  0
   24.0368   70.8201   -1.1606 O   0  0  0  0  0  0  0  0  0  0  0  0
   24.1535   70.3207    1.5178 O   0  0  0  0  0  0  0  0  0  0  0  0
   22.8184   70.4643   -0.5091 C   0  0  1  0  0  0  0  0  0  0  0  0
   22.9170   70.7394    0.9769 C   0  0  2  0  0  0  0  0  0  0  0  0
   21.7463   71.4551   -0.9455 C   0  0  1  0  0  0  0  0  0  0  0  0
   22.7356   72.2468    1.0311 C   0  0  2  0  0  0  0  0  0  0  0  0
   24.7365   70.2011   -0.8976 H   0  0  0  0  0  0  0  0  0  0  0  0
   24.2213   69.3548    1.4603 H   0  0  0  0  0  0  0  0  0  0  0  0
   24.0466   72.3357    3.5313 O   0  0  0  0  0  0  0  0  0  0  0  0
   20.2796   73.9284    5.6559 O   0  0  0  0  0  0  0  0  0  0  0  0
   22.1214   72.6809    2.2540 N   0  0  0  0  0  0  0  0  0  0  0  0
   22.1699   73.1288    4.5871 N   0  0  0  0  0  0  0  0  0  0  0  0
   22.8673   72.6866    3.4557 C   0  0  0  0  0  0  0  0  0  0  0  0
   20.7940   73.0954    2.2538 C   0  0  0  0  0  0  0  0  0  0  0  0
   20.1431   73.5130    3.3415 C   0  0  0  0  0  0  0  0  0  0  0  0
   20.8504   73.5495    4.6379 C   0  0  0  0  0  0  0  0  0  0  0  0
   22.6693   73.1410    5.4358 H   0  0  0  0  0  0  0  0  0  0  0  0
   17.0424   71.5801   -2.1851 O   0  0  0  0  0  0  0  0  0  0  0  0
   16.8465   70.0206   -2.5627 P   0  0  2  0  0  0  0  0  0  0  0  0
   15.2510   69.7998   -2.4115 O   0  0  0  0  0  0  0  0  0  0  0  0
   17.6823   69.0796   -1.7443 O   0  0  0  0  0  0  0  0  0  0  0  0
   17.1193   69.9478   -4.1519 O   0  0  0  0  0  0  0  0  0  0  0  0
   18.3804   71.2288   -5.6962 O   0  0  0  0  0  0  0  0  0  0  0  0
   14.9097   70.7823   -7.8883 O   0  0  0  0  0  0  0  0  0  0  0  0
   17.2660   69.3290   -8.6522 O   0  0  0  0  0  0  0  0  0  0  0  0
   14.7668   71.2023   -5.0278 O   0  0  0  0  0  0  0  0  0  0  0  0
   15.9315   70.3835   -6.9706 C   0  0  1  0  0  0  0  0  0  0  0  0
   17.2713   70.3971   -7.7091 C   0  0  1  0  0  0  0  0  0  0  0  0
   15.9554   71.3591   -5.7954 C   0  0  2  0  0  0  0  0  0  0  0  0
   18.4442   70.2412   -6.7318 C   0  0  1  0  0  0  0  0  0  0  0  0
   17.1876   71.1506   -4.9133 C   0  0  1  0  0  0  0  0  0  0  0  0
   14.8889   70.1666   -8.6367 H   0  0  0  0  0  0  0  0  0  0  0  0
   16.5204   69.4391   -9.2631 H   0  0  0  0  0  0  0  0  0  0  0  0
   13.9940   71.3370   -5.5974 H   0  0  0  0  0  0  0  0  0  0  0  0
   19.5648   70.8491   -8.7526 O   0  0  0  0  0  0  0  0  0  0  0  0
   19.7937   70.4098   -7.4264 C   0  0  0  0  0  0  0  0  0  0  0  0
   20.4150   70.9610   -9.2069 H   0  0  0  0  0  0  0  0  0  0  0  0
 25 28  1  0
 25 24  1  0
 25 26  1  6
 25 27  2  0
  1  4  1  0
  1 24  1  0
  1  2  1  6
  1  3  2  0
  6 11  1  0
  6 12  1  0
 29 36  1  0
 29 37  1  0
  9  7  1  6
  7 13  1  0
 10  8  1  6
  8 14  1  0
 37 28  1  6
  4  5  1  0
 33 30  1  6
 30 38  1  0
 34 31  1  6
 31 39  1  0
 35 32  1  1
 32 40  1  0
 41 42  1  0
 41 43  1  0
 15 19  2  0
 16 22  2  0
 12 17  1  1
 17 19  1  0
 17 20  1  0
 18 19  1  0
 18 22  1  0
 18 23  1  0
  9 10  1  0
  9 11  1  0
 10 12  1  0
 11  5  1  1
 33 34  1  0
 33 35  1  0
 34 36  1  0
 35 37  1  0
 36 42  1  6
 20 21  2  0
 21 22  1  0
M  CHG  2   2  -1  26  -1
M  END
>  <COMPND>  (78) 
    8629 

>  <AUTHOR>  (78) 
    GENERATED BY OPEN BABEL 3.1.1

>  <MASTER>  (78) 
        0    0    0    0    0    0    0    0   58    0   58    0

>  <minimizedAffinity>  (78) 
-6.89109

>  <CNNscore>  (78) 
0.4184463918

>  <CNNaffinity>  (78) 
4.0929512978

>  <CNN_VS>  (78) 
1.7126806974

>  <CNNaffinity_variance>  (78) 
0.2385774553

$$$$
79
     RDKit          3D

 43 45  0  0  0  0  0  0  0  0999 V2000
   23.7273   73.7325   -4.4057 P   0  0  2  0  0  0  0  0  0  0  0  0
   24.5562   74.9293   -5.1113 O   0  0  0  0  0  0  0  0  0  0  0  0
   24.5292   72.5024   -4.0969 O   0  0  0  0  0  0  0  0  0  0  0  0
   22.4540   73.5149   -5.3799 O   0  0  0  0  0  0  0  0  0  0  0  0
   22.4873   72.4441   -6.3072 C   0  0  0  0  0  0  0  0  0  0  0  0
   20.6432   70.9798   -5.8287 O   0  0  0  0  0  0  0  0  0  0  0  0
   18.9328   72.9624   -7.2896 O   0  0  0  0  0  0  0  0  0  0  0  0
   18.4326   73.5579   -4.6759 O   0  0  0  0  0  0  0  0  0  0  0  0
   20.0595   73.1922   -6.4452 C   0  0  1  0  0  0  0  0  0  0  0  0
   19.6815   72.9787   -4.9943 C   0  0  2  0  0  0  0  0  0  0  0  0
   21.0603   72.0681   -6.6820 C   0  0  1  0  0  0  0  0  0  0  0  0
   19.6659   71.4629   -4.8926 C   0  0  2  0  0  0  0  0  0  0  0  0
   18.2798   73.6680   -7.1564 H   0  0  0  0  0  0  0  0  0  0  0  0
   18.4938   74.5227   -4.7552 H   0  0  0  0  0  0  0  0  0  0  0  0
   17.8014   71.0233   -2.8170 O   0  0  0  0  0  0  0  0  0  0  0  0
   21.0994   69.6824    0.1098 O   0  0  0  0  0  0  0  0  0  0  0  0
   20.0098   70.9987   -3.5782 N   0  0  0  0  0  0  0  0  0  0  0  0
   19.4450   70.3558   -1.3614 N   0  0  0  0  0  0  0  0  0  0  0  0
   18.9977   70.8114   -2.6081 C   0  0  0  0  0  0  0  0  0  0  0  0
   21.3379   70.7338   -3.2623 C   0  0  0  0  0  0  0  0  0  0  0  0
   21.7482   70.3011   -2.0682 C   0  0  0  0  0  0  0  0  0  0  0  0
   20.7538   70.0797   -0.9986 C   0  0  0  0  0  0  0  0  0  0  0  0
   18.7576   70.2185   -0.6698 H   0  0  0  0  0  0  0  0  0  0  0  0
   23.0770   74.4536   -3.1133 O   0  0  0  0  0  0  0  0  0  0  0  0
   23.7653   75.1284   -1.8157 P   0  0  2  0  0  0  0  0  0  0  0  0
   22.8487   76.4341   -1.5464 O   0  0  0  0  0  0  0  0  0  0  0  0
   25.2287   75.4218   -1.9780 O   0  0  0  0  0  0  0  0  0  0  0  0
   23.4148   74.1264   -0.5999 O   0  0  0  0  0  0  0  0  0  0  0  0
   24.1617   74.1377    1.6493 O   0  0  0  0  0  0  0  0  0  0  0  0
   24.0147   70.0588    1.0232 O   0  0  0  0  0  0  0  0  0  0  0  0
   22.0393   71.3095    2.6911 O   0  0  0  0  0  0  0  0  0  0  0  0
   24.9241   71.8125   -1.0926 O   0  0  0  0  0  0  0  0  0  0  0  0
   23.5900   71.4162    0.8732 C   0  0  1  0  0  0  0  0  0  0  0  0
   23.2293   71.9616    2.2564 C   0  0  1  0  0  0  0  0  0  0  0  0
   24.7255   72.2290    0.2541 C   0  0  2  0  0  0  0  0  0  0  0  0
   23.0214   73.4815    2.2156 C   0  0  1  0  0  0  0  0  0  0  0  0
   24.4398   73.7308    0.3080 C   0  0  1  0  0  0  0  0  0  0  0  0
   23.2980   69.5372    1.4154 H   0  0  0  0  0  0  0  0  0  0  0  0
   22.1839   70.3504    2.7119 H   0  0  0  0  0  0  0  0  0  0  0  0
   25.1045   70.8602   -1.1132 H   0  0  0  0  0  0  0  0  0  0  0  0
   23.2072   73.1006    4.5671 O   0  0  0  0  0  0  0  0  0  0  0  0
   22.8161   74.0683    3.6105 C   0  0  0  0  0  0  0  0  0  0  0  0
   23.0823   73.4604    5.4596 H   0  0  0  0  0  0  0  0  0  0  0  0
 25 28  1  0
 25 24  1  0
 25 26  1  1
 25 27  2  0
  1  4  1  0
  1 24  1  0
  1  2  1  6
  1  3  2  0
  6 11  1  0
  6 12  1  0
 29 36  1  0
 29 37  1  0
  9  7  1  6
  7 13  1  0
 10  8  1  6
  8 14  1  0
 37 28  1  6
  4  5  1  0
 33 30  1  1
 30 38  1  0
 34 31  1  6
 31 39  1  0
 35 32  1  6
 32 40  1  0
 41 42  1  0
 41 43  1  0
 15 19  2  0
 16 22  2  0
 12 17  1  1
 17 19  1  0
 17 20  1  0
 18 19  1  0
 18 22  1  0
 18 23  1  0
  9 10  1  0
  9 11  1  0
 10 12  1  0
 11  5  1  1
 33 34  1  0
 33 35  1  0
 34 36  1  0
 35 37  1  0
 36 42  1  1
 20 21  2  0
 21 22  1  0
M  CHG  2   2  -1  26  -1
M  END
>  <COMPND>  (79) 
    8629 

>  <AUTHOR>  (79) 
    GENERATED BY OPEN BABEL 3.1.1

>  <MASTER>  (79) 
        0    0    0    0    0    0    0    0   58    0   58    0

>  <minimizedAffinity>  (79) 
-6.17577

>  <CNNscore>  (79) 
0.4112376273

>  <CNNaffinity>  (79) 
3.7646243572

>  <CNN_VS>  (79) 
1.5481551886

>  <CNNaffinity_variance>  (79) 
0.5801245570

$$$$
80
     RDKit          3D

 43 45  0  0  0  0  0  0  0  0999 V2000
   17.6868   70.1024   -2.2557 P   0  0  2  0  0  0  0  0  0  0  0  0
   17.4047   68.5988   -1.7293 O   0  0  0  0  0  0  0  0  0  0  0  0
   16.6932   71.1303   -1.8000 O   0  0  0  0  0  0  0  0  0  0  0  0
   17.8364   69.9315   -3.8576 O   0  0  0  0  0  0  0  0  0  0  0  0
   16.8737   69.1534   -4.5473 C   0  0  0  0  0  0  0  0  0  0  0  0
   16.9592   71.2343   -5.7457 O   0  0  0  0  0  0  0  0  0  0  0  0
   15.0470   69.9806   -7.6854 O   0  0  0  0  0  0  0  0  0  0  0  0
   17.4366   69.7617   -8.9809 O   0  0  0  0  0  0  0  0  0  0  0  0
   16.1260   69.3832   -6.9683 C   0  0  1  0  0  0  0  0  0  0  0  0
   17.4519   69.8020   -7.5685 C   0  0  2  0  0  0  0  0  0  0  0  0
   16.1846   70.0254   -5.5879 C   0  0  1  0  0  0  0  0  0  0  0  0
   17.6122   71.2118   -7.0255 C   0  0  2  0  0  0  0  0  0  0  0  0
   14.9894   69.5862   -8.5703 H   0  0  0  0  0  0  0  0  0  0  0  0
   17.3327   68.8440   -9.2772 H   0  0  0  0  0  0  0  0  0  0  0  0
   18.5160   73.8492   -6.5720 O   0  0  0  0  0  0  0  0  0  0  0  0
   22.9194   72.5023   -6.3792 O   0  0  0  0  0  0  0  0  0  0  0  0
   18.9895   71.5789   -6.8529 N   0  0  0  0  0  0  0  0  0  0  0  0
   20.7078   73.1764   -6.4762 N   0  0  0  0  0  0  0  0  0  0  0  0
   19.3374   72.9318   -6.6314 C   0  0  0  0  0  0  0  0  0  0  0  0
   19.9785   70.6026   -6.9035 C   0  0  0  0  0  0  0  0  0  0  0  0
   21.2810   70.8524   -6.7549 C   0  0  0  0  0  0  0  0  0  0  0  0
   21.7289   72.2403   -6.5197 C   0  0  0  0  0  0  0  0  0  0  0  0
   20.9738   74.1118   -6.3212 H   0  0  0  0  0  0  0  0  0  0  0  0
   19.2060   70.3763   -1.7761 O   0  0  0  0  0  0  0  0  0  0  0  0
   20.1607   71.6678   -1.9598 P   0  0  2  0  0  0  0  0  0  0  0  0
   19.5060   72.7584   -0.9601 O   0  0  0  0  0  0  0  0  0  0  0  0
   20.2986   72.1340   -3.3802 O   0  0  0  0  0  0  0  0  0  0  0  0
   21.5514   71.2514   -1.2546 O   0  0  0  0  0  0  0  0  0  0  0  0
   22.5541   72.9029    0.1179 O   0  0  0  0  0  0  0  0  0  0  0  0
   25.7859   70.3736   -0.3389 O   0  0  0  0  0  0  0  0  0  0  0  0
   24.4221   70.4899    2.1859 O   0  0  0  0  0  0  0  0  0  0  0  0
   23.9997   70.8508   -2.5662 O   0  0  0  0  0  0  0  0  0  0  0  0
   24.4026   70.7074   -0.1959 C   0  0  1  0  0  0  0  0  0  0  0  0
   24.2200   71.4340    1.1380 C   0  0  1  0  0  0  0  0  0  0  0  0
   23.9829   71.6046   -1.3588 C   0  0  2  0  0  0  0  0  0  0  0  0
   22.8215   72.0571    1.2425 C   0  0  1  0  0  0  0  0  0  0  0  0
   22.5973   72.2119   -1.1321 C   0  0  1  0  0  0  0  0  0  0  0  0
   26.0587   69.8036    0.3961 H   0  0  0  0  0  0  0  0  0  0  0  0
   25.3086   70.1036    2.1082 H   0  0  0  0  0  0  0  0  0  0  0  0
   24.8822   70.4719   -2.6985 H   0  0  0  0  0  0  0  0  0  0  0  0
   22.3591   72.0739    3.5867 O   0  0  0  0  0  0  0  0  0  0  0  0
   22.6713   72.9188    2.4944 C   0  0  0  0  0  0  0  0  0  0  0  0
   22.2609   72.6086    4.3905 H   0  0  0  0  0  0  0  0  0  0  0  0
 25 28  1  0
 25 24  1  0
 25 26  1  1
 25 27  2  0
  1  4  1  0
  1 24  1  0
  1  2  1  1
  1  3  2  0
  6 11  1  0
  6 12  1  0
 29 36  1  0
 29 37  1  0
  9  7  1  6
  7 13  1  0
 10  8  1  6
  8 14  1  0
 37 28  1  1
  4  5  1  0
 33 30  1  6
 30 38  1  0
 34 31  1  1
 31 39  1  0
 35 32  1  6
 32 40  1  0
 41 42  1  0
 41 43  1  0
 15 19  2  0
 16 22  2  0
 12 17  1  1
 17 19  1  0
 17 20  1  0
 18 19  1  0
 18 22  1  0
 18 23  1  0
  9 10  1  0
  9 11  1  0
 10 12  1  0
 11  5  1  1
 33 34  1  0
 33 35  1  0
 34 36  1  0
 35 37  1  0
 36 42  1  1
 20 21  2  0
 21 22  1  0
M  CHG  2   2  -1  26  -1
M  END
>  <COMPND>  (80) 
    8629 

>  <AUTHOR>  (80) 
    GENERATED BY OPEN BABEL 3.1.1

>  <MASTER>  (80) 
        0    0    0    0    0    0    0    0   58    0   58    0

>  <minimizedAffinity>  (80) 
-7.79547

>  <CNNscore>  (80) 
0.4076113105

>  <CNNaffinity>  (80) 
4.1272473335

>  <CNN_VS>  (80) 
1.6823127270

>  <CNNaffinity_variance>  (80) 
0.8121280670

$$$$
81
     RDKit          3D

 43 45  0  0  0  0  0  0  0  0999 V2000
   21.3999   70.7989   -2.2319 P   0  0  2  0  0  0  0  0  0  0  0  0
   20.5284   69.8264   -1.2768 O   0  0  0  0  0  0  0  0  0  0  0  0
   22.7804   70.3042   -2.5495 O   0  0  0  0  0  0  0  0  0  0  0  0
   21.3210   72.2379   -1.4965 O   0  0  0  0  0  0  0  0  0  0  0  0
   21.6697   72.3165   -0.1253 C   0  0  0  0  0  0  0  0  0  0  0  0
   20.7063   72.0150    2.0552 O   0  0  0  0  0  0  0  0  0  0  0  0
   18.4702   73.7721    1.1049 O   0  0  0  0  0  0  0  0  0  0  0  0
   19.9751   75.4831    2.6031 O   0  0  0  0  0  0  0  0  0  0  0  0
   19.8639   73.8460    0.8089 C   0  0  1  0  0  0  0  0  0  0  0  0
   20.6270   74.3830    2.0018 C   0  0  2  0  0  0  0  0  0  0  0  0
   20.3975   72.4228    0.7044 C   0  0  1  0  0  0  0  0  0  0  0  0
   20.6839   73.1681    2.9123 C   0  0  2  0  0  0  0  0  0  0  0  0
   18.1070   74.6693    1.1761 H   0  0  0  0  0  0  0  0  0  0  0  0
   19.9646   76.2303    1.9848 H   0  0  0  0  0  0  0  0  0  0  0  0
   20.8138   74.2615    5.5134 O   0  0  0  0  0  0  0  0  0  0  0  0
   25.2409   73.0722    5.9902 O   0  0  0  0  0  0  0  0  0  0  0  0
   21.8578   73.1577    3.7389 N   0  0  0  0  0  0  0  0  0  0  0  0
   23.0180   73.6682    5.7487 N   0  0  0  0  0  0  0  0  0  0  0  0
   21.8178   73.7344    5.0297 C   0  0  0  0  0  0  0  0  0  0  0  0
   23.0317   72.5798    3.2680 C   0  0  0  0  0  0  0  0  0  0  0  0
   24.1682   72.5260    3.9657 C   0  0  0  0  0  0  0  0  0  0  0  0
   24.2112   73.1058    5.3236 C   0  0  0  0  0  0  0  0  0  0  0  0
   23.0140   74.0640    6.6505 H   0  0  0  0  0  0  0  0  0  0  0  0
   20.4431   70.9961   -3.5198 O   0  0  0  0  0  0  0  0  0  0  0  0
   19.5800   72.2696   -4.0159 P   0  0  2  0  0  0  0  0  0  0  0  0
   20.7060   73.2813   -4.5869 O   0  0  0  0  0  0  0  0  0  0  0  0
   18.6940   72.8621   -2.9586 O   0  0  0  0  0  0  0  0  0  0  0  0
   18.7984   71.7473   -5.3279 O   0  0  0  0  0  0  0  0  0  0  0  0
   18.1699   69.4635   -5.4055 O   0  0  0  0  0  0  0  0  0  0  0  0
   17.8929   70.3611   -9.4265 O   0  0  0  0  0  0  0  0  0  0  0  0
   15.4967   69.9658   -7.8936 O   0  0  0  0  0  0  0  0  0  0  0  0
   20.0293   71.4968   -7.8373 O   0  0  0  0  0  0  0  0  0  0  0  0
   17.7934   70.6208   -8.0236 C   0  0  1  0  0  0  0  0  0  0  0  0
   16.7978   69.6274   -7.4214 C   0  0  1  0  0  0  0  0  0  0  0  0
   19.1715   70.4542   -7.3861 C   0  0  2  0  0  0  0  0  0  0  0  0
   16.8363   69.6654   -5.8878 C   0  0  1  0  0  0  0  0  0  0  0  0
   19.0913   70.4574   -5.8585 C   0  0  1  0  0  0  0  0  0  0  0  0
   17.0213   70.4656   -9.8374 H   0  0  0  0  0  0  0  0  0  0  0  0
   15.4861   69.9386   -8.8633 H   0  0  0  0  0  0  0  0  0  0  0  0
   20.0719   71.4840   -8.8058 H   0  0  0  0  0  0  0  0  0  0  0  0
   16.7128   67.3708   -5.2330 O   0  0  0  0  0  0  0  0  0  0  0  0
   15.9674   68.5739   -5.2666 C   0  0  0  0  0  0  0  0  0  0  0  0
   16.1724   66.6672   -4.8398 H   0  0  0  0  0  0  0  0  0  0  0  0
 25 28  1  0
 25 24  1  0
 25 26  1  6
 25 27  2  0
  1  4  1  0
  1 24  1  0
  1  2  1  1
  1  3  2  0
  6 11  1  0
  6 12  1  0
 29 36  1  0
 29 37  1  0
  9  7  1  1
  7 13  1  0
 10  8  1  1
  8 14  1  0
 37 28  1  6
  4  5  1  0
 33 30  1  6
 30 38  1  0
 34 31  1  1
 31 39  1  0
 35 32  1  1
 32 40  1  0
 41 42  1  0
 41 43  1  0
 15 19  2  0
 16 22  2  0
 12 17  1  6
 17 19  1  0
 17 20  1  0
 18 19  1  0
 18 22  1  0
 18 23  1  0
  9 10  1  0
  9 11  1  0
 10 12  1  0
 11  5  1  6
 33 34  1  0
 33 35  1  0
 34 36  1  0
 35 37  1  0
 36 42  1  1
 20 21  2  0
 21 22  1  0
M  CHG  2   2  -1  26  -1
M  END
>  <COMPND>  (81) 
    8629 

>  <AUTHOR>  (81) 
    GENERATED BY OPEN BABEL 3.1.1

>  <MASTER>  (81) 
        0    0    0    0    0    0    0    0   58    0   58    0

>  <minimizedAffinity>  (81) 
-6.96490

>  <CNNscore>  (81) 
0.8277369738

>  <CNNaffinity>  (81) 
4.2478084564

>  <CNN_VS>  (81) 
3.5160682201

>  <CNNaffinity_variance>  (81) 
0.1472499073

$$$$
82
     RDKit          3D

 43 45  0  0  0  0  0  0  0  0999 V2000
   21.9560   73.4784   -1.9135 P   0  0  2  0  0  0  0  0  0  0  0  0
   21.2767   74.6564   -1.0371 O   0  0  0  0  0  0  0  0  0  0  0  0
   23.4493   73.5600   -2.0355 O   0  0  0  0  0  0  0  0  0  0  0  0
   21.1345   73.5079   -3.3071 O   0  0  0  0  0  0  0  0  0  0  0  0
   20.5761   72.2979   -3.7885 C   0  0  0  0  0  0  0  0  0  0  0  0
   20.7865   70.6275   -5.5030 O   0  0  0  0  0  0  0  0  0  0  0  0
   22.9366   72.3624   -6.6682 O   0  0  0  0  0  0  0  0  0  0  0  0
   20.7893   72.9351   -8.2485 O   0  0  0  0  0  0  0  0  0  0  0  0
   21.7271   72.7418   -6.0137 C   0  0  1  0  0  0  0  0  0  0  0  0
   20.5403   72.5075   -6.9249 C   0  0  2  0  0  0  0  0  0  0  0  0
   21.4681   71.7445   -4.8913 C   0  0  1  0  0  0  0  0  0  0  0  0
   20.3559   71.0030   -6.8215 C   0  0  2  0  0  0  0  0  0  0  0  0
   23.1231   72.9852   -7.3889 H   0  0  0  0  0  0  0  0  0  0  0  0
   20.8994   73.8987   -8.2618 H   0  0  0  0  0  0  0  0  0  0  0  0
   19.1862   70.3580   -9.3102 O   0  0  0  0  0  0  0  0  0  0  0  0
   15.0958   69.4935   -7.3707 O   0  0  0  0  0  0  0  0  0  0  0  0
   18.9873   70.6058   -6.9959 N   0  0  0  0  0  0  0  0  0  0  0  0
   17.1505   69.9279   -8.3424 N   0  0  0  0  0  0  0  0  0  0  0  0
   18.4986   70.3043   -8.2885 C   0  0  0  0  0  0  0  0  0  0  0  0
   18.1452   70.5180   -5.8927 C   0  0  0  0  0  0  0  0  0  0  0  0
   16.8617   70.1588   -5.9612 C   0  0  0  0  0  0  0  0  0  0  0  0
   16.2728   69.8272   -7.2747 C   0  0  0  0  0  0  0  0  0  0  0  0
   16.7880   69.7136   -9.2326 H   0  0  0  0  0  0  0  0  0  0  0  0
   21.4119   72.1342   -1.1994 O   0  0  0  0  0  0  0  0  0  0  0  0
   22.2008   70.9203   -0.4803 P   0  0  2  0  0  0  0  0  0  0  0  0
   23.2032   70.3933   -1.6356 O   0  0  0  0  0  0  0  0  0  0  0  0
   21.3065   69.8602    0.0945 O   0  0  0  0  0  0  0  0  0  0  0  0
   23.1630   71.6400    0.5972 O   0  0  0  0  0  0  0  0  0  0  0  0
   24.8084   71.0115    2.1829 O   0  0  0  0  0  0  0  0  0  0  0  0
   22.4572   73.4082    4.5866 O   0  0  0  0  0  0  0  0  0  0  0  0
   25.0323   74.3492    3.7316 O   0  0  0  0  0  0  0  0  0  0  0  0
   21.2212   71.6776    2.6228 O   0  0  0  0  0  0  0  0  0  0  0  0
   23.0881   73.0042    3.3684 C   0  0  1  0  0  0  0  0  0  0  0  0
   24.6017   72.9982    3.5914 C   0  0  1  0  0  0  0  0  0  0  0  0
   22.5949   71.6090    2.9897 C   0  0  2  0  0  0  0  0  0  0  0  0
   25.3313   72.3234    2.4219 C   0  0  1  0  0  0  0  0  0  0  0  0
   23.4190   71.0088    1.8492 C   0  0  1  0  0  0  0  0  0  0  0  0
   22.7657   74.2936    4.8324 H   0  0  0  0  0  0  0  0  0  0  0  0
   24.5638   74.7639    4.4730 H   0  0  0  0  0  0  0  0  0  0  0  0
   20.7102   72.0589    3.3531 H   0  0  0  0  0  0  0  0  0  0  0  0
   27.4357   73.4397    2.6069 O   0  0  0  0  0  0  0  0  0  0  0  0
   26.8255   72.1653    2.6948 C   0  0  0  0  0  0  0  0  0  0  0  0
   28.3870   73.3545    2.7787 H   0  0  0  0  0  0  0  0  0  0  0  0
 25 28  1  0
 25 24  1  0
 25 26  1  6
 25 27  2  0
  1  4  1  0
  1 24  1  0
  1  2  1  1
  1  3  2  0
  6 11  1  0
  6 12  1  0
 29 36  1  0
 29 37  1  0
  9  7  1  6
  7 13  1  0
 10  8  1  6
  8 14  1  0
 37 28  1  6
  4  5  1  0
 33 30  1  1
 30 38  1  0
 34 31  1  6
 31 39  1  0
 35 32  1  6
 32 40  1  0
 41 42  1  0
 41 43  1  0
 15 19  2  0
 16 22  2  0
 12 17  1  1
 17 19  1  0
 17 20  1  0
 18 19  1  0
 18 22  1  0
 18 23  1  0
  9 10  1  0
  9 11  1  0
 10 12  1  0
 11  5  1  1
 33 34  1  0
 33 35  1  0
 34 36  1  0
 35 37  1  0
 36 42  1  1
 20 21  2  0
 21 22  1  0
M  CHG  2   2  -1  26  -1
M  END
>  <COMPND>  (82) 
    8629 

>  <AUTHOR>  (82) 
    GENERATED BY OPEN BABEL 3.1.1

>  <MASTER>  (82) 
        0    0    0    0    0    0    0    0   58    0   58    0

>  <minimizedAffinity>  (82) 
-7.03937

>  <CNNscore>  (82) 
0.8229634762

>  <CNNaffinity>  (82) 
4.4907240868

>  <CNN_VS>  (82) 
3.6957018375

>  <CNNaffinity_variance>  (82) 
0.0792133287

$$$$
83
     RDKit          3D

 43 45  0  0  0  0  0  0  0  0999 V2000
   24.3496   72.4901   -3.4412 P   0  0  2  0  0  0  0  0  0  0  0  0
   25.1966   73.8672   -3.3795 O   0  0  0  0  0  0  0  0  0  0  0  0
   25.0969   71.2661   -2.9997 O   0  0  0  0  0  0  0  0  0  0  0  0
   23.7747   72.4551   -4.9532 O   0  0  0  0  0  0  0  0  0  0  0  0
   22.4094   72.1309   -5.1500 C   0  0  0  0  0  0  0  0  0  0  0  0
   21.2056   71.4066   -7.0994 O   0  0  0  0  0  0  0  0  0  0  0  0
   21.3058   74.2666   -7.9942 O   0  0  0  0  0  0  0  0  0  0  0  0
   18.7718   74.0395   -7.0123 O   0  0  0  0  0  0  0  0  0  0  0  0
   21.1610   73.7379   -6.6770 C   0  0  1  0  0  0  0  0  0  0  0  0
   19.7647   73.1844   -6.4832 C   0  0  2  0  0  0  0  0  0  0  0  0
   22.0176   72.4818   -6.5788 C   0  0  1  0  0  0  0  0  0  0  0  0
   19.8466   71.8579   -7.2192 C   0  0  2  0  0  0  0  0  0  0  0  0
   20.7680   75.0699   -8.0809 H   0  0  0  0  0  0  0  0  0  0  0  0
   18.7590   74.8695   -6.5108 H   0  0  0  0  0  0  0  0  0  0  0  0
   18.2565   70.0869   -8.7401 O   0  0  0  0  0  0  0  0  0  0  0  0
   16.5370   68.0919   -4.9580 O   0  0  0  0  0  0  0  0  0  0  0  0
   18.9743   70.8653   -6.6578 N   0  0  0  0  0  0  0  0  0  0  0  0
   17.4018   69.0949   -6.8557 N   0  0  0  0  0  0  0  0  0  0  0  0
   18.2182   70.0266   -7.5094 C   0  0  0  0  0  0  0  0  0  0  0  0
   18.8754   70.7307   -5.2772 C   0  0  0  0  0  0  0  0  0  0  0  0
   18.0912   69.8381   -4.6695 C   0  0  0  0  0  0  0  0  0  0  0  0
   17.2682   68.9235   -5.4869 C   0  0  0  0  0  0  0  0  0  0  0  0
   16.8655   68.5001   -7.4287 H   0  0  0  0  0  0  0  0  0  0  0  0
   23.0372   72.8309   -2.5612 O   0  0  0  0  0  0  0  0  0  0  0  0
   22.3726   72.0616   -1.3045 P   0  0  2  0  0  0  0  0  0  0  0  0
   22.5098   70.5014   -1.7097 O   0  0  0  0  0  0  0  0  0  0  0  0
   20.9717   72.4980   -0.9867 O   0  0  0  0  0  0  0  0  0  0  0  0
   23.4259   72.2636   -0.0984 O   0  0  0  0  0  0  0  0  0  0  0  0
   25.0448   71.1240    1.2044 O   0  0  0  0  0  0  0  0  0  0  0  0
   22.4483   72.2463    4.2126 O   0  0  0  0  0  0  0  0  0  0  0  0
   24.9881   73.5641    3.9669 O   0  0  0  0  0  0  0  0  0  0  0  0
   21.4070   71.3983    1.6481 O   0  0  0  0  0  0  0  0  0  0  0  0
   23.1521   72.3942    2.9764 C   0  0  1  0  0  0  0  0  0  0  0  0
   24.6528   72.3659    3.2726 C   0  0  1  0  0  0  0  0  0  0  0  0
   22.7667   71.2486    2.0424 C   0  0  2  0  0  0  0  0  0  0  0  0
   25.4707   72.2509    1.9792 C   0  0  1  0  0  0  0  0  0  0  0  0
   23.6728   71.1944    0.8111 C   0  0  1  0  0  0  0  0  0  0  0  0
   22.6881   72.9709    4.8100 H   0  0  0  0  0  0  0  0  0  0  0  0
   24.4645   73.6248    4.7813 H   0  0  0  0  0  0  0  0  0  0  0  0
   20.8436   71.4309    2.4364 H   0  0  0  0  0  0  0  0  0  0  0  0
   27.4627   73.2528    2.8377 O   0  0  0  0  0  0  0  0  0  0  0  0
   26.9601   72.0625    2.2592 C   0  0  0  0  0  0  0  0  0  0  0  0
   28.4097   73.1474    3.0216 H   0  0  0  0  0  0  0  0  0  0  0  0
 25 28  1  0
 25 24  1  0
 25 26  1  6
 25 27  2  0
  1  4  1  0
  1 24  1  0
  1  2  1  6
  1  3  2  0
  6 11  1  0
  6 12  1  0
 29 36  1  0
 29 37  1  0
  9  7  1  6
  7 13  1  0
 10  8  1  6
  8 14  1  0
 37 28  1  6
  4  5  1  0
 33 30  1  1
 30 38  1  0
 34 31  1  6
 31 39  1  0
 35 32  1  6
 32 40  1  0
 41 42  1  0
 41 43  1  0
 15 19  2  0
 16 22  2  0
 12 17  1  1
 17 19  1  0
 17 20  1  0
 18 19  1  0
 18 22  1  0
 18 23  1  0
  9 10  1  0
  9 11  1  0
 10 12  1  0
 11  5  1  1
 33 34  1  0
 33 35  1  0
 34 36  1  0
 35 37  1  0
 36 42  1  1
 20 21  2  0
 21 22  1  0
M  CHG  2   2  -1  26  -1
M  END
>  <COMPND>  (83) 
    8629 

>  <AUTHOR>  (83) 
    GENERATED BY OPEN BABEL 3.1.1

>  <MASTER>  (83) 
        0    0    0    0    0    0    0    0   58    0   58    0

>  <minimizedAffinity>  (83) 
-7.59524

>  <CNNscore>  (83) 
0.7236778140

>  <CNNaffinity>  (83) 
4.4426274300

>  <CNN_VS>  (83) 
3.2150309086

>  <CNNaffinity_variance>  (83) 
0.0781722739

$$$$
84
     RDKit          3D

 43 45  0  0  0  0  0  0  0  0999 V2000
   20.6866   72.8294   -2.7154 P   0  0  2  0  0  0  0  0  0  0  0  0
   20.6777   72.3039   -1.1853 O   0  0  0  0  0  0  0  0  0  0  0  0
   20.1709   74.2251   -2.9091 O   0  0  0  0  0  0  0  0  0  0  0  0
   19.9020   71.6713   -3.5284 O   0  0  0  0  0  0  0  0  0  0  0  0
   19.2760   70.6345   -2.7929 C   0  0  0  0  0  0  0  0  0  0  0  0
   17.5307   71.3019   -4.3037 O   0  0  0  0  0  0  0  0  0  0  0  0
   15.7190   69.5361   -2.6942 O   0  0  0  0  0  0  0  0  0  0  0  0
   16.2702   67.9930   -4.8740 O   0  0  0  0  0  0  0  0  0  0  0  0
   17.0925   69.3506   -3.0323 C   0  0  1  0  0  0  0  0  0  0  0  0
   17.2272   68.9587   -4.4889 C   0  0  2  0  0  0  0  0  0  0  0  0
   17.7705   70.7148   -3.0059 C   0  0  1  0  0  0  0  0  0  0  0  0
   17.0298   70.2904   -5.1930 C   0  0  2  0  0  0  0  0  0  0  0  0
   15.2650   68.6783   -2.7041 H   0  0  0  0  0  0  0  0  0  0  0  0
   16.4380   67.1641   -4.3991 H   0  0  0  0  0  0  0  0  0  0  0  0
   15.9162   69.6853   -7.7172 O   0  0  0  0  0  0  0  0  0  0  0  0
   19.8745   70.6099   -9.8893 O   0  0  0  0  0  0  0  0  0  0  0  0
   17.7467   70.3649   -6.4348 N   0  0  0  0  0  0  0  0  0  0  0  0
   17.8880   70.1464   -8.7967 N   0  0  0  0  0  0  0  0  0  0  0  0
   17.0951   70.0389   -7.6471 C   0  0  0  0  0  0  0  0  0  0  0  0
   19.0806   70.7580   -6.4425 C   0  0  0  0  0  0  0  0  0  0  0  0
   19.8232   70.8542   -7.5473 C   0  0  0  0  0  0  0  0  0  0  0  0
   19.2181   70.5313   -8.8555 C   0  0  0  0  0  0  0  0  0  0  0  0
   17.4553   69.9238   -9.6529 H   0  0  0  0  0  0  0  0  0  0  0  0
   22.2238   72.6117   -3.1656 O   0  0  0  0  0  0  0  0  0  0  0  0
   23.3738   71.6385   -2.5797 P   0  0  2  0  0  0  0  0  0  0  0  0
   24.6825   72.0532   -3.4358 O   0  0  0  0  0  0  0  0  0  0  0  0
   23.0326   70.1777   -2.6387 O   0  0  0  0  0  0  0  0  0  0  0  0
   23.6645   72.1980   -1.0939 O   0  0  0  0  0  0  0  0  0  0  0  0
   25.2869   71.8945    0.6067 O   0  0  0  0  0  0  0  0  0  0  0  0
   21.8644   71.4173    2.8672 O   0  0  0  0  0  0  0  0  0  0  0  0
   23.4278   73.8098    3.1492 O   0  0  0  0  0  0  0  0  0  0  0  0
   21.9800   70.3494    0.1791 O   0  0  0  0  0  0  0  0  0  0  0  0
   22.6691   71.9702    1.8222 C   0  0  1  0  0  0  0  0  0  0  0  0
   23.8830   72.6489    2.4597 C   0  0  1  0  0  0  0  0  0  0  0  0
   23.1112   70.8475    0.8854 C   0  0  2  0  0  0  0  0  0  0  0  0
   24.9244   73.0312    1.3993 C   0  0  1  0  0  0  0  0  0  0  0  0
   24.1835   71.3212   -0.0973 C   0  0  1  0  0  0  0  0  0  0  0  0
   21.5800   72.1250    3.4653 H   0  0  0  0  0  0  0  0  0  0  0  0
   22.7704   73.5547    3.8155 H   0  0  0  0  0  0  0  0  0  0  0  0
   21.3087   70.0524    0.8123 H   0  0  0  0  0  0  0  0  0  0  0  0
   26.0106   74.9244    2.3714 O   0  0  0  0  0  0  0  0  0  0  0  0
   26.2099   73.5658    2.0267 C   0  0  0  0  0  0  0  0  0  0  0  0
   26.8206   75.2779    2.7722 H   0  0  0  0  0  0  0  0  0  0  0  0
 25 28  1  0
 25 24  1  0
 25 26  1  6
 25 27  2  0
  1  4  1  0
  1 24  1  0
  1  2  1  1
  1  3  2  0
  6 11  1  0
  6 12  1  0
 29 36  1  0
 29 37  1  0
  9  7  1  6
  7 13  1  0
 10  8  1  6
  8 14  1  0
 37 28  1  6
  4  5  1  0
 33 30  1  1
 30 38  1  0
 34 31  1  6
 31 39  1  0
 35 32  1  6
 32 40  1  0
 41 42  1  0
 41 43  1  0
 15 19  2  0
 16 22  2  0
 12 17  1  6
 17 19  1  0
 17 20  1  0
 18 19  1  0
 18 22  1  0
 18 23  1  0
  9 10  1  0
  9 11  1  0
 10 12  1  0
 11  5  1  6
 33 34  1  0
 33 35  1  0
 34 36  1  0
 35 37  1  0
 36 42  1  1
 20 21  2  0
 21 22  1  0
M  CHG  2   2  -1  26  -1
M  END
>  <COMPND>  (84) 
    8629 

>  <AUTHOR>  (84) 
    GENERATED BY OPEN BABEL 3.1.1

>  <MASTER>  (84) 
        0    0    0    0    0    0    0    0   58    0   58    0

>  <minimizedAffinity>  (84) 
-6.58505

>  <CNNscore>  (84) 
0.5990133286

>  <CNNaffinity>  (84) 
4.4386019707

>  <CNN_VS>  (84) 
2.6587817669

>  <CNNaffinity_variance>  (84) 
0.0565038212

$$$$
85
     RDKit          3D

 43 45  0  0  0  0  0  0  0  0999 V2000
   22.1640   72.0320   -3.1242 P   0  0  2  0  0  0  0  0  0  0  0  0
   22.2332   70.4501   -3.4564 O   0  0  0  0  0  0  0  0  0  0  0  0
   23.2244   72.8648   -3.7826 O   0  0  0  0  0  0  0  0  0  0  0  0
   22.1294   72.0882   -1.5076 O   0  0  0  0  0  0  0  0  0  0  0  0
   22.9539   73.0318   -0.8460 C   0  0  0  0  0  0  0  0  0  0  0  0
   25.0801   73.2968    0.2415 O   0  0  0  0  0  0  0  0  0  0  0  0
   25.4853   70.3665   -0.2485 O   0  0  0  0  0  0  0  0  0  0  0  0
   24.7466   70.4338    2.3757 O   0  0  0  0  0  0  0  0  0  0  0  0
   24.2869   71.0700    0.0746 C   0  0  1  0  0  0  0  0  0  0  0  0
   24.2914   71.4737    1.5342 C   0  0  2  0  0  0  0  0  0  0  0  0
   24.3314   72.4206   -0.6292 C   0  0  1  0  0  0  0  0  0  0  0  0
   25.2262   72.6713    1.5269 C   0  0  2  0  0  0  0  0  0  0  0  0
   25.4796   69.5004    0.1895 H   0  0  0  0  0  0  0  0  0  0  0  0
   24.1185   69.6953    2.3461 H   0  0  0  0  0  0  0  0  0  0  0  0
   27.1356   74.0851    3.0545 O   0  0  0  0  0  0  0  0  0  0  0  0
   23.8655   76.3067    5.4234 O   0  0  0  0  0  0  0  0  0  0  0  0
   24.9016   73.6256    2.5494 N   0  0  0  0  0  0  0  0  0  0  0  0
   25.5058   75.1902    4.2326 N   0  0  0  0  0  0  0  0  0  0  0  0
   25.9356   74.2800    3.2586 C   0  0  0  0  0  0  0  0  0  0  0  0
   23.5705   73.9046    2.8396 C   0  0  0  0  0  0  0  0  0  0  0  0
   23.1772   74.7744    3.7723 C   0  0  0  0  0  0  0  0  0  0  0  0
   24.1951   75.5007    4.5587 C   0  0  0  0  0  0  0  0  0  0  0  0
   26.2087   75.6578    4.7397 H   0  0  0  0  0  0  0  0  0  0  0  0
   20.6501   72.4235   -3.5339 O   0  0  0  0  0  0  0  0  0  0  0  0
   20.0685   73.2119   -4.8196 P   0  0  2  0  0  0  0  0  0  0  0  0
   21.3293   73.2507   -5.8327 O   0  0  0  0  0  0  0  0  0  0  0  0
   19.4863   74.5592   -4.5037 O   0  0  0  0  0  0  0  0  0  0  0  0
   19.0318   72.1778   -5.4984 O   0  0  0  0  0  0  0  0  0  0  0  0
   18.7829   69.8251   -5.3590 O   0  0  0  0  0  0  0  0  0  0  0  0
   18.0875   70.3240   -9.3986 O   0  0  0  0  0  0  0  0  0  0  0  0
   15.8994   69.6857   -7.6513 O   0  0  0  0  0  0  0  0  0  0  0  0
   20.1122   71.9139   -8.0748 O   0  0  0  0  0  0  0  0  0  0  0  0
   18.0430   70.6825   -8.0148 C   0  0  1  0  0  0  0  0  0  0  0  0
   17.2677   69.5986   -7.2633 C   0  0  1  0  0  0  0  0  0  0  0  0
   19.4702   70.7906   -7.4811 C   0  0  2  0  0  0  0  0  0  0  0  0
   17.4044   69.7718   -5.7446 C   0  0  1  0  0  0  0  0  0  0  0  0
   19.4954   70.9102   -5.9562 C   0  0  1  0  0  0  0  0  0  0  0  0
   17.1844   70.2542   -9.7438 H   0  0  0  0  0  0  0  0  0  0  0  0
   15.8270   69.5752   -8.6125 H   0  0  0  0  0  0  0  0  0  0  0  0
   20.0899   71.8260   -9.0401 H   0  0  0  0  0  0  0  0  0  0  0  0
   15.3983   68.8996   -4.7835 O   0  0  0  0  0  0  0  0  0  0  0  0
   16.7711   68.6131   -4.9775 C   0  0  0  0  0  0  0  0  0  0  0  0
   14.9822   68.1705   -4.2968 H   0  0  0  0  0  0  0  0  0  0  0  0
 25 28  1  0
 25 24  1  0
 25 26  1  6
 25 27  2  0
  1  4  1  0
  1 24  1  0
  1  2  1  1
  1  3  2  0
  6 11  1  0
  6 12  1  0
 29 36  1  0
 29 37  1  0
  9  7  1  1
  7 13  1  0
 10  8  1  1
  8 14  1  0
 37 28  1  6
  4  5  1  0
 33 30  1  6
 30 38  1  0
 34 31  1  1
 31 39  1  0
 35 32  1  6
 32 40  1  0
 41 42  1  0
 41 43  1  0
 15 19  2  0
 16 22  2  0
 12 17  1  1
 17 19  1  0
 17 20  1  0
 18 19  1  0
 18 22  1  0
 18 23  1  0
  9 10  1  0
  9 11  1  0
 10 12  1  0
 11  5  1  1
 33 34  1  0
 33 35  1  0
 34 36  1  0
 35 37  1  0
 36 42  1  1
 20 21  2  0
 21 22  1  0
M  CHG  2   2  -1  26  -1
M  END
>  <COMPND>  (85) 
    8629 

>  <AUTHOR>  (85) 
    GENERATED BY OPEN BABEL 3.1.1

>  <MASTER>  (85) 
        0    0    0    0    0    0    0    0   58    0   58    0

>  <minimizedAffinity>  (85) 
-6.80095

>  <CNNscore>  (85) 
0.5214248896

>  <CNNaffinity>  (85) 
4.2952957153

>  <CNN_VS>  (85) 
2.2396740913

>  <CNNaffinity_variance>  (85) 
0.2568480074

$$$$
86
     RDKit          3D

 43 45  0  0  0  0  0  0  0  0999 V2000
   20.2397   72.9777   -3.9957 P   0  0  2  0  0  0  0  0  0  0  0  0
   20.0229   74.3127   -3.1080 O   0  0  0  0  0  0  0  0  0  0  0  0
   20.9723   73.1880   -5.2882 O   0  0  0  0  0  0  0  0  0  0  0  0
   18.7534   72.3513   -4.1244 O   0  0  0  0  0  0  0  0  0  0  0  0
   18.3619   71.7886   -5.3645 C   0  0  0  0  0  0  0  0  0  0  0  0
   18.0631   69.9027   -3.9057 O   0  0  0  0  0  0  0  0  0  0  0  0
   17.8701   68.2442   -6.3963 O   0  0  0  0  0  0  0  0  0  0  0  0
   15.2575   68.5308   -5.6691 O   0  0  0  0  0  0  0  0  0  0  0  0
   17.4008   69.5700   -6.1566 C   0  0  1  0  0  0  0  0  0  0  0  0
   16.1664   69.5403   -5.2797 C   0  0  2  0  0  0  0  0  0  0  0  0
   18.4124   70.2706   -5.2581 C   0  0  1  0  0  0  0  0  0  0  0  0
   16.7626   69.2915   -3.9047 C   0  0  2  0  0  0  0  0  0  0  0  0
   17.2405   67.7771   -6.9684 H   0  0  0  0  0  0  0  0  0  0  0  0
   14.9059   68.7343   -6.5498 H   0  0  0  0  0  0  0  0  0  0  0  0
   16.9187   68.5310   -1.1889 O   0  0  0  0  0  0  0  0  0  0  0  0
   13.6939   71.5853    0.0414 O   0  0  0  0  0  0  0  0  0  0  0  0
   15.9755   69.8717   -2.8533 N   0  0  0  0  0  0  0  0  0  0  0  0
   15.3130   70.0526   -0.5785 N   0  0  0  0  0  0  0  0  0  0  0  0
   16.1297   69.4174   -1.5228 C   0  0  0  0  0  0  0  0  0  0  0  0
   15.0633   70.8797   -3.1461 C   0  0  0  0  0  0  0  0  0  0  0  0
   14.2910   71.4742   -2.2343 C   0  0  0  0  0  0  0  0  0  0  0  0
   14.3904   71.0581   -0.8205 C   0  0  0  0  0  0  0  0  0  0  0  0
   15.4028   69.7522    0.3550 H   0  0  0  0  0  0  0  0  0  0  0  0
   20.9706   71.9701   -2.9644 O   0  0  0  0  0  0  0  0  0  0  0  0
   20.4715   71.3408   -1.5616 P   0  0  2  0  0  0  0  0  0  0  0  0
   20.5547   69.7459   -1.8200 O   0  0  0  0  0  0  0  0  0  0  0  0
   19.1229   71.8262   -1.1146 O   0  0  0  0  0  0  0  0  0  0  0  0
   21.6704   71.6491   -0.5260 O   0  0  0  0  0  0  0  0  0  0  0  0
   23.1758   73.3937    0.0280 O   0  0  0  0  0  0  0  0  0  0  0  0
   25.8905   70.3336   -0.5352 O   0  0  0  0  0  0  0  0  0  0  0  0
   25.3444   71.2732    2.1232 O   0  0  0  0  0  0  0  0  0  0  0  0
   23.5793   70.5501   -2.2647 O   0  0  0  0  0  0  0  0  0  0  0  0
   24.6459   70.9143   -0.1360 C   0  0  1  0  0  0  0  0  0  0  0  0
   24.9290   71.9590    0.9453 C   0  0  1  0  0  0  0  0  0  0  0  0
   23.9855   71.5633   -1.3509 C   0  0  2  0  0  0  0  0  0  0  0  0
   23.6845   72.8097    1.2330 C   0  0  1  0  0  0  0  0  0  0  0  0
   22.7878   72.4260   -0.9492 C   0  0  1  0  0  0  0  0  0  0  0  0
   26.3148   69.9194    0.2316 H   0  0  0  0  0  0  0  0  0  0  0  0
   26.1306   70.7394    1.9278 H   0  0  0  0  0  0  0  0  0  0  0  0
   24.3464   70.0111   -2.5115 H   0  0  0  0  0  0  0  0  0  0  0  0
   22.8360   74.7779    2.2888 O   0  0  0  0  0  0  0  0  0  0  0  0
   23.9865   73.9586    2.1926 C   0  0  0  0  0  0  0  0  0  0  0  0
   23.0134   75.5133    2.8967 H   0  0  0  0  0  0  0  0  0  0  0  0
 25 28  1  0
 25 24  1  0
 25 26  1  6
 25 27  2  0
  1  4  1  0
  1 24  1  0
  1  2  1  1
  1  3  2  0
  6 11  1  0
  6 12  1  0
 29 36  1  0
 29 37  1  0
  9  7  1  1
  7 13  1  0
 10  8  1  6
  8 14  1  0
 37 28  1  1
  4  5  1  0
 33 30  1  6
 30 38  1  0
 34 31  1  1
 31 39  1  0
 35 32  1  6
 32 40  1  0
 41 42  1  0
 41 43  1  0
 15 19  2  0
 16 22  2  0
 12 17  1  1
 17 19  1  0
 17 20  1  0
 18 19  1  0
 18 22  1  0
 18 23  1  0
  9 10  1  0
  9 11  1  0
 10 12  1  0
 11  5  1  1
 33 34  1  0
 33 35  1  0
 34 36  1  0
 35 37  1  0
 36 42  1  1
 20 21  2  0
 21 22  1  0
M  CHG  2   2  -1  26  -1
M  END
>  <COMPND>  (86) 
    8629 

>  <AUTHOR>  (86) 
    GENERATED BY OPEN BABEL 3.1.1

>  <MASTER>  (86) 
        0    0    0    0    0    0    0    0   58    0   58    0

>  <minimizedAffinity>  (86) 
-6.41568

>  <CNNscore>  (86) 
0.5197260976

>  <CNNaffinity>  (86) 
4.3205518723

>  <CNN_VS>  (86) 
2.2455036640

>  <CNNaffinity_variance>  (86) 
0.1794715226

$$$$
87
     RDKit          3D

 43 45  0  0  0  0  0  0  0  0999 V2000
   23.4618   71.6942   -2.8573 P   0  0  2  0  0  0  0  0  0  0  0  0
   23.5705   73.1675   -2.1977 O   0  0  0  0  0  0  0  0  0  0  0  0
   24.7568   70.9413   -2.9434 O   0  0  0  0  0  0  0  0  0  0  0  0
   22.7048   71.9533   -4.2637 O   0  0  0  0  0  0  0  0  0  0  0  0
   21.2909   71.8658   -4.2966 C   0  0  0  0  0  0  0  0  0  0  0  0
   19.8668   70.3528   -5.5035 O   0  0  0  0  0  0  0  0  0  0  0  0
   20.3068   72.1293   -7.8786 O   0  0  0  0  0  0  0  0  0  0  0  0
   17.8392   72.8990   -7.0097 O   0  0  0  0  0  0  0  0  0  0  0  0
   20.1794   72.4793   -6.5014 C   0  0  1  0  0  0  0  0  0  0  0  0
   18.7357   72.3598   -6.0598 C   0  0  2  0  0  0  0  0  0  0  0  0
   20.8555   71.3915   -5.6763 C   0  0  1  0  0  0  0  0  0  0  0  0
   18.5798   70.8575   -5.8957 C   0  0  2  0  0  0  0  0  0  0  0  0
   19.8826   72.8097   -8.4255 H   0  0  0  0  0  0  0  0  0  0  0  0
   17.9775   73.8566   -7.0778 H   0  0  0  0  0  0  0  0  0  0  0  0
   16.2093   69.4012   -6.3836 O   0  0  0  0  0  0  0  0  0  0  0  0
   14.9593   69.5976   -1.9519 O   0  0  0  0  0  0  0  0  0  0  0  0
   17.6170   70.5137   -4.8876 N   0  0  0  0  0  0  0  0  0  0  0  0
   15.5889   69.5001   -4.1765 N   0  0  0  0  0  0  0  0  0  0  0  0
   16.4592   69.7806   -5.2376 C   0  0  0  0  0  0  0  0  0  0  0  0
   17.8258   70.9023   -3.5688 C   0  0  0  0  0  0  0  0  0  0  0  0
   16.9855   70.6279   -2.5688 C   0  0  0  0  0  0  0  0  0  0  0  0
   15.7518   69.8656   -2.8497 C   0  0  0  0  0  0  0  0  0  0  0  0
   14.7754   68.9907   -4.3966 H   0  0  0  0  0  0  0  0  0  0  0  0
   22.3250   70.9769   -1.9595 O   0  0  0  0  0  0  0  0  0  0  0  0
   22.2368   70.7186   -0.3663 P   0  0  2  0  0  0  0  0  0  0  0  0
   23.7870   70.5675    0.0714 O   0  0  0  0  0  0  0  0  0  0  0  0
   21.3678   69.5575    0.0217 O   0  0  0  0  0  0  0  0  0  0  0  0
   21.7749   72.1359    0.2524 O   0  0  0  0  0  0  0  0  0  0  0  0
   21.5824   71.8061    2.5914 O   0  0  0  0  0  0  0  0  0  0  0  0
   20.4106   75.7602    2.3840 O   0  0  0  0  0  0  0  0  0  0  0  0
   22.9809   75.0987    3.4812 O   0  0  0  0  0  0  0  0  0  0  0  0
   19.5953   73.9024    0.3192 O   0  0  0  0  0  0  0  0  0  0  0  0
   21.1622   74.6026    2.0092 C   0  0  1  0  0  0  0  0  0  0  0  0
   21.9623   74.1354    3.2267 C   0  0  1  0  0  0  0  0  0  0  0  0
   20.1994   73.5104    1.5472 C   0  0  2  0  0  0  0  0  0  0  0  0
   22.5828   72.7529    2.9845 C   0  0  1  0  0  0  0  0  0  0  0  0
   20.9083   72.1647    1.3836 C   0  0  1  0  0  0  0  0  0  0  0  0
   21.0161   76.4577    2.6779 H   0  0  0  0  0  0  0  0  0  0  0  0
   22.5758   75.9673    3.6319 H   0  0  0  0  0  0  0  0  0  0  0  0
   19.1497   74.7553    0.4360 H   0  0  0  0  0  0  0  0  0  0  0  0
   24.5361   72.7840    4.3603 O   0  0  0  0  0  0  0  0  0  0  0  0
   23.2526   72.1987    4.2400 C   0  0  0  0  0  0  0  0  0  0  0  0
   24.9741   72.4408    5.1553 H   0  0  0  0  0  0  0  0  0  0  0  0
 25 28  1  0
 25 24  1  0
 25 26  1  1
 25 27  2  0
  1  4  1  0
  1 24  1  0
  1  2  1  1
  1  3  2  0
  6 11  1  0
  6 12  1  0
 29 36  1  0
 29 37  1  0
  9  7  1  6
  7 13  1  0
 10  8  1  6
  8 14  1  0
 37 28  1  6
  4  5  1  0
 33 30  1  1
 30 38  1  0
 34 31  1  6
 31 39  1  0
 35 32  1  6
 32 40  1  0
 41 42  1  0
 41 43  1  0
 15 19  2  0
 16 22  2  0
 12 17  1  1
 17 19  1  0
 17 20  1  0
 18 19  1  0
 18 22  1  0
 18 23  1  0
  9 10  1  0
  9 11  1  0
 10 12  1  0
 11  5  1  1
 33 34  1  0
 33 35  1  0
 34 36  1  0
 35 37  1  0
 36 42  1  1
 20 21  2  0
 21 22  1  0
M  CHG  2   2  -1  26  -1
M  END
>  <COMPND>  (87) 
    8629 

>  <AUTHOR>  (87) 
    GENERATED BY OPEN BABEL 3.1.1

>  <MASTER>  (87) 
        0    0    0    0    0    0    0    0   58    0   58    0

>  <minimizedAffinity>  (87) 
-6.63237

>  <CNNscore>  (87) 
0.5036430359

>  <CNNaffinity>  (87) 
4.1768670082

>  <CNN_VS>  (87) 
2.1036500931

>  <CNNaffinity_variance>  (87) 
0.1389034539

$$$$
88
     RDKit          3D

 43 45  0  0  0  0  0  0  0  0999 V2000
   21.4343   70.4577   -0.6455 P   0  0  2  0  0  0  0  0  0  0  0  0
   21.8583   70.0053   -2.1398 O   0  0  0  0  0  0  0  0  0  0  0  0
   21.4117   69.3523    0.3689 O   0  0  0  0  0  0  0  0  0  0  0  0
   20.0363   71.2436   -0.8596 O   0  0  0  0  0  0  0  0  0  0  0  0
   19.3487   71.0779   -2.0874 C   0  0  0  0  0  0  0  0  0  0  0  0
   17.5014   72.0466   -3.2804 O   0  0  0  0  0  0  0  0  0  0  0  0
   15.8563   71.4435   -0.8471 O   0  0  0  0  0  0  0  0  0  0  0  0
   15.1807   69.4145   -2.5392 O   0  0  0  0  0  0  0  0  0  0  0  0
   16.9230   70.6920   -1.4240 C   0  0  1  0  0  0  0  0  0  0  0  0
   16.4565   70.0031   -2.6895 C   0  0  2  0  0  0  0  0  0  0  0  0
   17.9547   71.6768   -1.9597 C   0  0  1  0  0  0  0  0  0  0  0  0
   16.4587   71.1466   -3.6898 C   0  0  2  0  0  0  0  0  0  0  0  0
   15.1850   70.8359   -0.4977 H   0  0  0  0  0  0  0  0  0  0  0  0
   15.2314   68.6929   -1.8931 H   0  0  0  0  0  0  0  0  0  0  0  0
   15.4479   72.3913   -6.0150 O   0  0  0  0  0  0  0  0  0  0  0  0
   17.5462   69.3542   -8.7745 O   0  0  0  0  0  0  0  0  0  0  0  0
   16.7253   70.7023   -5.0288 N   0  0  0  0  0  0  0  0  0  0  0  0
   16.4936   70.8782   -7.3871 N   0  0  0  0  0  0  0  0  0  0  0  0
   16.1683   71.3973   -6.1275 C   0  0  0  0  0  0  0  0  0  0  0  0
   17.5313   69.5893   -5.2421 C   0  0  0  0  0  0  0  0  0  0  0  0
   17.8308   69.1062   -6.4496 C   0  0  0  0  0  0  0  0  0  0  0  0
   17.2891   69.7743   -7.6505 C   0  0  0  0  0  0  0  0  0  0  0  0
   16.1166   71.3459   -8.1674 H   0  0  0  0  0  0  0  0  0  0  0  0
   22.4751   71.6504   -0.3178 O   0  0  0  0  0  0  0  0  0  0  0  0
   23.6783   71.7437    0.7576 P   0  0  2  0  0  0  0  0  0  0  0  0
   24.8269   72.5570   -0.0403 O   0  0  0  0  0  0  0  0  0  0  0  0
   24.1229   70.4164    1.3003 O   0  0  0  0  0  0  0  0  0  0  0  0
   23.1474   72.7796    1.8757 O   0  0  0  0  0  0  0  0  0  0  0  0
   22.9469   72.5319    4.2241 O   0  0  0  0  0  0  0  0  0  0  0  0
   19.5653   74.7907    3.5078 O   0  0  0  0  0  0  0  0  0  0  0  0
   21.8274   75.9961    4.8031 O   0  0  0  0  0  0  0  0  0  0  0  0
   20.3524   72.7337    1.6293 O   0  0  0  0  0  0  0  0  0  0  0  0
   20.9166   74.3680    3.3062 C   0  0  1  0  0  0  0  0  0  0  0  0
   21.6883   74.5915    4.6083 C   0  0  1  0  0  0  0  0  0  0  0  0
   20.9252   72.8893    2.9232 C   0  0  2  0  0  0  0  0  0  0  0  0
   23.0672   73.9198    4.5573 C   0  0  1  0  0  0  0  0  0  0  0  0
   22.3395   72.3069    2.9505 C   0  0  1  0  0  0  0  0  0  0  0  0
   19.5528   75.7290    3.7508 H   0  0  0  0  0  0  0  0  0  0  0  0
   20.9496   76.4082    4.8329 H   0  0  0  0  0  0  0  0  0  0  0  0
   19.4572   73.1059    1.6252 H   0  0  0  0  0  0  0  0  0  0  0  0
   24.2902   72.7085    6.2143 O   0  0  0  0  0  0  0  0  0  0  0  0
   23.7900   73.9952    5.9004 C   0  0  0  0  0  0  0  0  0  0  0  0
   24.7531   72.7413    7.0666 H   0  0  0  0  0  0  0  0  0  0  0  0
 25 28  1  0
 25 24  1  0
 25 26  1  6
 25 27  2  0
  1  4  1  0
  1 24  1  0
  1  2  1  6
  1  3  2  0
  6 11  1  0
  6 12  1  0
 29 36  1  0
 29 37  1  0
  9  7  1  6
  7 13  1  0
 10  8  1  1
  8 14  1  0
 37 28  1  6
  4  5  1  0
 33 30  1  1
 30 38  1  0
 34 31  1  6
 31 39  1  0
 35 32  1  6
 32 40  1  0
 41 42  1  0
 41 43  1  0
 15 19  2  0
 16 22  2  0
 12 17  1  6
 17 19  1  0
 17 20  1  0
 18 19  1  0
 18 22  1  0
 18 23  1  0
  9 10  1  0
  9 11  1  0
 10 12  1  0
 11  5  1  6
 33 34  1  0
 33 35  1  0
 34 36  1  0
 35 37  1  0
 36 42  1  1
 20 21  2  0
 21 22  1  0
M  CHG  2   2  -1  26  -1
M  END
>  <COMPND>  (88) 
    8629 

>  <AUTHOR>  (88) 
    GENERATED BY OPEN BABEL 3.1.1

>  <MASTER>  (88) 
        0    0    0    0    0    0    0    0   58    0   58    0

>  <minimizedAffinity>  (88) 
-6.49105

>  <CNNscore>  (88) 
0.4848124683

>  <CNNaffinity>  (88) 
4.1517977715

>  <CNN_VS>  (88) 
2.0128433704

>  <CNNaffinity_variance>  (88) 
0.0505646877

$$$$
89
     RDKit          3D

 43 45  0  0  0  0  0  0  0  0999 V2000
   18.1550   70.1483   -2.2403 P   0  0  2  0  0  0  0  0  0  0  0  0
   17.7863   68.6709   -1.6940 O   0  0  0  0  0  0  0  0  0  0  0  0
   17.3371   71.2624   -1.6562 O   0  0  0  0  0  0  0  0  0  0  0  0
   18.0866   69.9957   -3.8497 O   0  0  0  0  0  0  0  0  0  0  0  0
   17.0373   69.2272   -4.4119 C   0  0  0  0  0  0  0  0  0  0  0  0
   17.0104   71.3068   -5.6152 O   0  0  0  0  0  0  0  0  0  0  0  0
   14.9533   70.0380   -7.3899 O   0  0  0  0  0  0  0  0  0  0  0  0
   17.2297   69.8325   -8.8773 O   0  0  0  0  0  0  0  0  0  0  0  0
   16.0915   69.4486   -6.7634 C   0  0  1  0  0  0  0  0  0  0  0  0
   17.3608   69.8750   -7.4710 C   0  0  2  0  0  0  0  0  0  0  0  0
   16.2593   70.0932   -5.3931 C   0  0  1  0  0  0  0  0  0  0  0  0
   17.5561   71.2867   -6.9444 C   0  0  2  0  0  0  0  0  0  0  0  0
   14.8258   69.6419   -8.2667 H   0  0  0  0  0  0  0  0  0  0  0  0
   17.1078   68.9137   -9.1632 H   0  0  0  0  0  0  0  0  0  0  0  0
   18.4768   73.9218   -6.5128 O   0  0  0  0  0  0  0  0  0  0  0  0
   22.8899   72.6126   -6.7408 O   0  0  0  0  0  0  0  0  0  0  0  0
   18.9404   71.6628   -6.8859 N   0  0  0  0  0  0  0  0  0  0  0  0
   20.6734   73.2678   -6.6265 N   0  0  0  0  0  0  0  0  0  0  0  0
   19.2965   73.0138   -6.6654 C   0  0  0  0  0  0  0  0  0  0  0  0
   19.9283   70.6972   -7.0460 C   0  0  0  0  0  0  0  0  0  0  0  0
   21.2370   70.9560   -7.0076 C   0  0  0  0  0  0  0  0  0  0  0  0
   21.6935   72.3425   -6.7814 C   0  0  0  0  0  0  0  0  0  0  0  0
   20.9451   74.2020   -6.4744 H   0  0  0  0  0  0  0  0  0  0  0  0
   19.7420   70.2566   -1.9528 O   0  0  0  0  0  0  0  0  0  0  0  0
   20.5607   71.0351   -0.7967 P   0  0  2  0  0  0  0  0  0  0  0  0
   21.0640   69.8399    0.1706 O   0  0  0  0  0  0  0  0  0  0  0  0
   19.7726   72.1059   -0.0993 O   0  0  0  0  0  0  0  0  0  0  0  0
   21.9007   71.5596   -1.5276 O   0  0  0  0  0  0  0  0  0  0  0  0
   21.1827   72.7617   -3.4397 O   0  0  0  0  0  0  0  0  0  0  0  0
   25.2670   73.1161   -3.9328 O   0  0  0  0  0  0  0  0  0  0  0  0
   23.7336   75.4032   -3.1168 O   0  0  0  0  0  0  0  0  0  0  0  0
   24.1415   70.6392   -2.9441 O   0  0  0  0  0  0  0  0  0  0  0  0
   24.0464   73.0331   -3.1922 C   0  0  1  0  0  0  0  0  0  0  0  0
   23.1508   74.2006   -3.6113 C   0  0  1  0  0  0  0  0  0  0  0  0
   23.3678   71.6988   -3.4964 C   0  0  2  0  0  0  0  0  0  0  0  0
   21.7276   74.0317   -3.0628 C   0  0  1  0  0  0  0  0  0  0  0  0
   21.9400   71.6536   -2.9492 C   0  0  1  0  0  0  0  0  0  0  0  0
   25.7032   73.9608   -3.7438 H   0  0  0  0  0  0  0  0  0  0  0  0
   24.6321   75.4976   -3.4702 H   0  0  0  0  0  0  0  0  0  0  0  0
   25.0431   70.6786   -3.2985 H   0  0  0  0  0  0  0  0  0  0  0  0
   21.2569   75.5388   -4.8560 O   0  0  0  0  0  0  0  0  0  0  0  0
   20.7777   75.1011   -3.5978 C   0  0  0  0  0  0  0  0  0  0  0  0
   20.6620   76.2195   -5.2089 H   0  0  0  0  0  0  0  0  0  0  0  0
 25 28  1  0
 25 24  1  0
 25 26  1  1
 25 27  2  0
  1  4  1  0
  1 24  1  0
  1  2  1  1
  1  3  2  0
  6 11  1  0
  6 12  1  0
 29 36  1  0
 29 37  1  0
  9  7  1  6
  7 13  1  0
 10  8  1  6
  8 14  1  0
 37 28  1  1
  4  5  1  0
 33 30  1  6
 30 38  1  0
 34 31  1  1
 31 39  1  0
 35 32  1  1
 32 40  1  0
 41 42  1  0
 41 43  1  0
 15 19  2  0
 16 22  2  0
 12 17  1  1
 17 19  1  0
 17 20  1  0
 18 19  1  0
 18 22  1  0
 18 23  1  0
  9 10  1  0
  9 11  1  0
 10 12  1  0
 11  5  1  1
 33 34  1  0
 33 35  1  0
 34 36  1  0
 35 37  1  0
 36 42  1  6
 20 21  2  0
 21 22  1  0
M  CHG  2   2  -1  26  -1
M  END
>  <COMPND>  (89) 
    8629 

>  <AUTHOR>  (89) 
    GENERATED BY OPEN BABEL 3.1.1

>  <MASTER>  (89) 
        0    0    0    0    0    0    0    0   58    0   58    0

>  <minimizedAffinity>  (89) 
-7.20221

>  <CNNscore>  (89) 
0.4842330515

>  <CNNaffinity>  (89) 
4.1638436317

>  <CNN_VS>  (89) 
2.0162706375

>  <CNNaffinity_variance>  (89) 
0.8257302046

$$$$
90
     RDKit          3D

 43 45  0  0  0  0  0  0  0  0999 V2000
   24.1223   72.1029   -2.9899 P   0  0  2  0  0  0  0  0  0  0  0  0
   25.1596   70.8645   -2.9008 O   0  0  0  0  0  0  0  0  0  0  0  0
   24.5610   73.2348   -3.8718 O   0  0  0  0  0  0  0  0  0  0  0  0
   23.8405   72.4856   -1.4433 O   0  0  0  0  0  0  0  0  0  0  0  0
   24.7729   72.0660   -0.4623 C   0  0  0  0  0  0  0  0  0  0  0  0
   24.8426   70.8649    1.6177 O   0  0  0  0  0  0  0  0  0  0  0  0
   22.1103   69.8531    0.9097 O   0  0  0  0  0  0  0  0  0  0  0  0
   21.5642   71.8370    2.6993 O   0  0  0  0  0  0  0  0  0  0  0  0
   22.6904   71.1329    0.6628 C   0  0  1  0  0  0  0  0  0  0  0  0
   22.7546   71.9372    1.9444 C   0  0  2  0  0  0  0  0  0  0  0  0
   24.1656   70.9256    0.3432 C   0  0  1  0  0  0  0  0  0  0  0  0
   23.9476   71.3135    2.6485 C   0  0  2  0  0  0  0  0  0  0  0  0
   21.1679   69.9598    1.1158 H   0  0  0  0  0  0  0  0  0  0  0  0
   20.8349   72.2479    2.2093 H   0  0  0  0  0  0  0  0  0  0  0  0
   23.0020   72.2017    5.1574 O   0  0  0  0  0  0  0  0  0  0  0  0
   26.6786   74.9079    5.7904 O   0  0  0  0  0  0  0  0  0  0  0  0
   24.6377   72.2496    3.4903 N   0  0  0  0  0  0  0  0  0  0  0  0
   24.8335   73.5483    5.4706 N   0  0  0  0  0  0  0  0  0  0  0  0
   24.0761   72.6308    4.7312 C   0  0  0  0  0  0  0  0  0  0  0  0
   25.8574   72.7792    3.0833 C   0  0  0  0  0  0  0  0  0  0  0  0
   26.5665   73.6542    3.7995 C   0  0  0  0  0  0  0  0  0  0  0  0
   26.0502   74.1042    5.1083 C   0  0  0  0  0  0  0  0  0  0  0  0
   24.4618   73.8287    6.3383 H   0  0  0  0  0  0  0  0  0  0  0  0
   22.7443   71.3907   -3.4449 O   0  0  0  0  0  0  0  0  0  0  0  0
   21.4570   71.9736   -4.2299 P   0  0  2  0  0  0  0  0  0  0  0  0
   21.7809   71.6330   -5.7780 O   0  0  0  0  0  0  0  0  0  0  0  0
   21.1765   73.4236   -3.9604 O   0  0  0  0  0  0  0  0  0  0  0  0
   20.2518   70.9748   -3.8362 O   0  0  0  0  0  0  0  0  0  0  0  0
   18.0569   71.8685   -3.8533 O   0  0  0  0  0  0  0  0  0  0  0  0
   17.3724   68.4808   -1.5938 O   0  0  0  0  0  0  0  0  0  0  0  0
   16.4006   68.6048   -4.2935 O   0  0  0  0  0  0  0  0  0  0  0  0
   19.8277   69.9748   -1.2488 O   0  0  0  0  0  0  0  0  0  0  0  0
   17.9874   69.2559   -2.6264 C   0  0  1  0  0  0  0  0  0  0  0  0
   16.8931   69.7366   -3.5815 C   0  0  1  0  0  0  0  0  0  0  0  0
   18.7102   70.4444   -1.9951 C   0  0  2  0  0  0  0  0  0  0  0  0
   17.4339   70.7889   -4.5589 C   0  0  1  0  0  0  0  0  0  0  0  0
   19.1641   71.4547   -3.0503 C   0  0  1  0  0  0  0  0  0  0  0  0
   16.9121   67.7243   -1.9879 H   0  0  0  0  0  0  0  0  0  0  0  0
   16.0625   67.9478   -3.6648 H   0  0  0  0  0  0  0  0  0  0  0  0
   19.5271   69.3362   -0.5841 H   0  0  0  0  0  0  0  0  0  0  0  0
   15.0767   70.9632   -4.9089 O   0  0  0  0  0  0  0  0  0  0  0  0
   16.3255   71.3967   -5.4158 C   0  0  0  0  0  0  0  0  0  0  0  0
   14.3618   71.3426   -5.4443 H   0  0  0  0  0  0  0  0  0  0  0  0
 25 28  1  0
 25 24  1  0
 25 26  1  6
 25 27  2  0
  1  4  1  0
  1 24  1  0
  1  2  1  1
  1  3  2  0
  6 11  1  0
  6 12  1  0
 29 36  1  0
 29 37  1  0
  9  7  1  1
  7 13  1  0
 10  8  1  1
  8 14  1  0
 37 28  1  6
  4  5  1  0
 33 30  1  1
 30 38  1  0
 34 31  1  6
 31 39  1  0
 35 32  1  6
 32 40  1  0
 41 42  1  0
 41 43  1  0
 15 19  2  0
 16 22  2  0
 12 17  1  1
 17 19  1  0
 17 20  1  0
 18 19  1  0
 18 22  1  0
 18 23  1  0
  9 10  1  0
  9 11  1  0
 10 12  1  0
 11  5  1  6
 33 34  1  0
 33 35  1  0
 34 36  1  0
 35 37  1  0
 36 42  1  1
 20 21  2  0
 21 22  1  0
M  CHG  2   2  -1  26  -1
M  END
>  <COMPND>  (90) 
    8629 

>  <AUTHOR>  (90) 
    GENERATED BY OPEN BABEL 3.1.1

>  <MASTER>  (90) 
        0    0    0    0    0    0    0    0   58    0   58    0

>  <minimizedAffinity>  (90) 
-7.89680

>  <CNNscore>  (90) 
0.4645285308

>  <CNNaffinity>  (90) 
4.1807379723

>  <CNN_VS>  (90) 
1.9420720339

>  <CNNaffinity_variance>  (90) 
0.3117762506

$$$$
91
     RDKit          3D

 43 45  0  0  0  0  0  0  0  0999 V2000
   18.1043   69.9978   -2.5312 P   0  0  2  0  0  0  0  0  0  0  0  0
   17.5257   68.5950   -1.9702 O   0  0  0  0  0  0  0  0  0  0  0  0
   17.3185   71.2123   -2.1325 O   0  0  0  0  0  0  0  0  0  0  0  0
   18.2523   69.7480   -4.1230 O   0  0  0  0  0  0  0  0  0  0  0  0
   17.2288   69.0331   -4.7932 C   0  0  0  0  0  0  0  0  0  0  0  0
   17.1870   71.2463   -5.7282 O   0  0  0  0  0  0  0  0  0  0  0  0
   15.3267   70.1336   -7.7999 O   0  0  0  0  0  0  0  0  0  0  0  0
   17.7112   70.2085   -9.1210 O   0  0  0  0  0  0  0  0  0  0  0  0
   16.4444   69.5145   -7.1652 C   0  0  1  0  0  0  0  0  0  0  0  0
   17.7389   70.0769   -7.7143 C   0  0  2  0  0  0  0  0  0  0  0  0
   16.4819   69.9857   -5.7168 C   0  0  1  0  0  0  0  0  0  0  0  0
   17.8269   71.4167   -7.0034 C   0  0  2  0  0  0  0  0  0  0  0  0
   15.2818   69.8475   -8.7262 H   0  0  0  0  0  0  0  0  0  0  0  0
   17.6549   69.3294   -9.5270 H   0  0  0  0  0  0  0  0  0  0  0  0
   18.6059   74.0721   -6.4377 O   0  0  0  0  0  0  0  0  0  0  0  0
   23.0604   72.9113   -6.2125 O   0  0  0  0  0  0  0  0  0  0  0  0
   19.1835   71.8365   -6.7921 N   0  0  0  0  0  0  0  0  0  0  0  0
   20.8233   73.4919   -6.3258 N   0  0  0  0  0  0  0  0  0  0  0  0
   19.4677   73.1941   -6.5151 C   0  0  0  0  0  0  0  0  0  0  0  0
   20.2153   70.9065   -6.8598 C   0  0  0  0  0  0  0  0  0  0  0  0
   21.5029   71.2070   -6.6782 C   0  0  0  0  0  0  0  0  0  0  0  0
   21.8851   72.6032   -6.3844 C   0  0  0  0  0  0  0  0  0  0  0  0
   21.0452   74.4316   -6.1321 H   0  0  0  0  0  0  0  0  0  0  0  0
   19.6371   69.9900   -2.0181 O   0  0  0  0  0  0  0  0  0  0  0  0
   20.9331   70.8074   -2.5331 P   0  0  2  0  0  0  0  0  0  0  0  0
   20.2895   72.0725   -3.3095 O   0  0  0  0  0  0  0  0  0  0  0  0
   21.8860   69.9931   -3.3594 O   0  0  0  0  0  0  0  0  0  0  0  0
   21.5781   71.4363   -1.1938 O   0  0  0  0  0  0  0  0  0  0  0  0
   21.7798   70.9005    1.1059 O   0  0  0  0  0  0  0  0  0  0  0  0
   20.2916   74.7368    1.4503 O   0  0  0  0  0  0  0  0  0  0  0  0
   23.0448   74.2218    2.0845 O   0  0  0  0  0  0  0  0  0  0  0  0
   19.3074   72.9881   -0.6361 O   0  0  0  0  0  0  0  0  0  0  0  0
   21.0614   73.6860    0.8599 C   0  0  1  0  0  0  0  0  0  0  0  0
   22.0755   73.1948    1.8947 C   0  0  1  0  0  0  0  0  0  0  0  0
   20.1244   72.5530    0.4454 C   0  0  2  0  0  0  0  0  0  0  0  0
   22.7542   71.8981    1.4332 C   0  0  1  0  0  0  0  0  0  0  0  0
   20.8996   71.2945    0.0515 C   0  0  1  0  0  0  0  0  0  0  0  0
   20.8805   75.4596    1.7152 H   0  0  0  0  0  0  0  0  0  0  0  0
   22.6032   75.0352    2.3753 H   0  0  0  0  0  0  0  0  0  0  0  0
   18.8217   73.7852   -0.3741 H   0  0  0  0  0  0  0  0  0  0  0  0
   24.5686   70.4166    1.9046 O   0  0  0  0  0  0  0  0  0  0  0  0
   23.6526   71.3057    2.5167 C   0  0  0  0  0  0  0  0  0  0  0  0
   25.1471   70.0322    2.5822 H   0  0  0  0  0  0  0  0  0  0  0  0
 25 28  1  0
 25 24  1  0
 25 26  1  6
 25 27  2  0
  1  4  1  0
  1 24  1  0
  1  2  1  1
  1  3  2  0
  6 11  1  0
  6 12  1  0
 29 36  1  0
 29 37  1  0
  9  7  1  6
  7 13  1  0
 10  8  1  6
  8 14  1  0
 37 28  1  6
  4  5  1  0
 33 30  1  1
 30 38  1  0
 34 31  1  6
 31 39  1  0
 35 32  1  6
 32 40  1  0
 41 42  1  0
 41 43  1  0
 15 19  2  0
 16 22  2  0
 12 17  1  1
 17 19  1  0
 17 20  1  0
 18 19  1  0
 18 22  1  0
 18 23  1  0
  9 10  1  0
  9 11  1  0
 10 12  1  0
 11  5  1  1
 33 34  1  0
 33 35  1  0
 34 36  1  0
 35 37  1  0
 36 42  1  1
 20 21  2  0
 21 22  1  0
M  CHG  2   2  -1  26  -1
M  END
>  <COMPND>  (91) 
    8629 

>  <AUTHOR>  (91) 
    GENERATED BY OPEN BABEL 3.1.1

>  <MASTER>  (91) 
        0    0    0    0    0    0    0    0   58    0   58    0

>  <minimizedAffinity>  (91) 
-7.02733

>  <CNNscore>  (91) 
0.4423952103

>  <CNNaffinity>  (91) 
4.1613583565

>  <CNN_VS>  (91) 
1.8409650326

>  <CNNaffinity_variance>  (91) 
0.4380508363

$$$$
92
     RDKit          3D

 43 45  0  0  0  0  0  0  0  0999 V2000
   17.8333   69.9840   -2.4210 P   0  0  2  0  0  0  0  0  0  0  0  0
   17.4488   68.4793   -1.9678 O   0  0  0  0  0  0  0  0  0  0  0  0
   16.8326   71.0355   -2.0412 O   0  0  0  0  0  0  0  0  0  0  0  0
   18.1415   69.8462   -4.0034 O   0  0  0  0  0  0  0  0  0  0  0  0
   17.2539   69.0821   -4.8010 C   0  0  0  0  0  0  0  0  0  0  0  0
   17.2099   71.2702   -5.7929 O   0  0  0  0  0  0  0  0  0  0  0  0
   15.2931   70.1209   -7.7918 O   0  0  0  0  0  0  0  0  0  0  0  0
   17.6473   70.1391   -9.1681 O   0  0  0  0  0  0  0  0  0  0  0  0
   16.4196   69.5083   -7.1665 C   0  0  1  0  0  0  0  0  0  0  0  0
   17.7061   70.0442   -7.7594 C   0  0  2  0  0  0  0  0  0  0  0  0
   16.4944   70.0170   -5.7323 C   0  0  1  0  0  0  0  0  0  0  0  0
   17.8219   71.4013   -7.0864 C   0  0  2  0  0  0  0  0  0  0  0  0
   15.2245   69.8111   -8.7090 H   0  0  0  0  0  0  0  0  0  0  0  0
   17.5742   69.2502   -9.5494 H   0  0  0  0  0  0  0  0  0  0  0  0
   18.6265   74.0345   -6.4564 O   0  0  0  0  0  0  0  0  0  0  0  0
   23.0855   72.8690   -6.4618 O   0  0  0  0  0  0  0  0  0  0  0  0
   19.1866   71.8139   -6.9169 N   0  0  0  0  0  0  0  0  0  0  0  0
   20.8460   73.4520   -6.4594 N   0  0  0  0  0  0  0  0  0  0  0  0
   19.4835   73.1605   -6.6023 C   0  0  0  0  0  0  0  0  0  0  0  0
   20.2137   70.8877   -7.0623 C   0  0  0  0  0  0  0  0  0  0  0  0
   21.5081   71.1820   -6.9241 C   0  0  0  0  0  0  0  0  0  0  0  0
   21.9037   72.5667   -6.5953 C   0  0  0  0  0  0  0  0  0  0  0  0
   21.0768   74.3840   -6.2406 H   0  0  0  0  0  0  0  0  0  0  0  0
   19.3032   70.1919   -1.7814 O   0  0  0  0  0  0  0  0  0  0  0  0
   20.5668   71.0645   -2.2861 P   0  0  2  0  0  0  0  0  0  0  0  0
   19.9721   72.5670   -2.3655 O   0  0  0  0  0  0  0  0  0  0  0  0
   21.1823   70.5738   -3.5645 O   0  0  0  0  0  0  0  0  0  0  0  0
   21.5746   71.0910   -1.0257 O   0  0  0  0  0  0  0  0  0  0  0  0
   22.5387   72.7969    0.3074 O   0  0  0  0  0  0  0  0  0  0  0  0
   25.8759   70.4298   -0.2502 O   0  0  0  0  0  0  0  0  0  0  0  0
   24.5931   70.4897    2.3186 O   0  0  0  0  0  0  0  0  0  0  0  0
   23.9946   70.8070   -2.4177 O   0  0  0  0  0  0  0  0  0  0  0  0
   24.4832   70.6948   -0.0619 C   0  0  1  0  0  0  0  0  0  0  0  0
   24.3092   71.4177    1.2753 C   0  0  1  0  0  0  0  0  0  0  0  0
   23.9805   71.5646   -1.2126 C   0  0  2  0  0  0  0  0  0  0  0  0
   22.8855   71.9707    1.4249 C   0  0  1  0  0  0  0  0  0  0  0  0
   22.5746   72.1030   -0.9413 C   0  0  1  0  0  0  0  0  0  0  0  0
   26.2012   69.8775    0.4769 H   0  0  0  0  0  0  0  0  0  0  0  0
   25.4948   70.1477    2.2122 H   0  0  0  0  0  0  0  0  0  0  0  0
   24.8900   70.4720   -2.5784 H   0  0  0  0  0  0  0  0  0  0  0  0
   22.6037   71.9723    3.7976 O   0  0  0  0  0  0  0  0  0  0  0  0
   22.7343   72.8296    2.6786 C   0  0  0  0  0  0  0  0  0  0  0  0
   22.5070   72.5051    4.6028 H   0  0  0  0  0  0  0  0  0  0  0  0
 25 28  1  0
 25 24  1  0
 25 26  1  6
 25 27  2  0
  1  4  1  0
  1 24  1  0
  1  2  1  1
  1  3  2  0
  6 11  1  0
  6 12  1  0
 29 36  1  0
 29 37  1  0
  9  7  1  6
  7 13  1  0
 10  8  1  6
  8 14  1  0
 37 28  1  1
  4  5  1  0
 33 30  1  6
 30 38  1  0
 34 31  1  1
 31 39  1  0
 35 32  1  6
 32 40  1  0
 41 42  1  0
 41 43  1  0
 15 19  2  0
 16 22  2  0
 12 17  1  1
 17 19  1  0
 17 20  1  0
 18 19  1  0
 18 22  1  0
 18 23  1  0
  9 10  1  0
  9 11  1  0
 10 12  1  0
 11  5  1  1
 33 34  1  0
 33 35  1  0
 34 36  1  0
 35 37  1  0
 36 42  1  1
 20 21  2  0
 21 22  1  0
M  CHG  2   2  -1  26  -1
M  END
>  <COMPND>  (92) 
    8629 

>  <AUTHOR>  (92) 
    GENERATED BY OPEN BABEL 3.1.1

>  <MASTER>  (92) 
        0    0    0    0    0    0    0    0   58    0   58    0

>  <minimizedAffinity>  (92) 
-7.90336

>  <CNNscore>  (92) 
0.4344793260

>  <CNNaffinity>  (92) 
4.1883111000

>  <CNN_VS>  (92) 
1.8197345734

>  <CNNaffinity_variance>  (92) 
0.7732412815

$$$$
93
     RDKit          3D

 43 45  0  0  0  0  0  0  0  0999 V2000
   22.9637   72.2965   -3.5811 P   0  0  2  0  0  0  0  0  0  0  0  0
   23.8672   72.3430   -4.9223 O   0  0  0  0  0  0  0  0  0  0  0  0
   22.6519   73.6356   -2.9802 O   0  0  0  0  0  0  0  0  0  0  0  0
   23.7502   71.2605   -2.6187 O   0  0  0  0  0  0  0  0  0  0  0  0
   24.0245   71.6519   -1.2848 C   0  0  0  0  0  0  0  0  0  0  0  0
   24.4597   70.5259    0.7928 O   0  0  0  0  0  0  0  0  0  0  0  0
   21.6368   69.5285    0.6280 O   0  0  0  0  0  0  0  0  0  0  0  0
   21.4380   71.5834    2.4096 O   0  0  0  0  0  0  0  0  0  0  0  0
   22.1725   70.7900    0.2319 C   0  0  1  0  0  0  0  0  0  0  0  0
   22.4732   71.6392    1.4493 C   0  0  2  0  0  0  0  0  0  0  0  0
   23.5641   70.5502   -0.3401 C   0  0  1  0  0  0  0  0  0  0  0  0
   23.7690   71.0243    1.9502 C   0  0  2  0  0  0  0  0  0  0  0  0
   20.7480   69.6561    0.9963 H   0  0  0  0  0  0  0  0  0  0  0  0
   20.6353   71.9867    2.0438 H   0  0  0  0  0  0  0  0  0  0  0  0
   23.3502   71.9475    4.5865 O   0  0  0  0  0  0  0  0  0  0  0  0
   27.0469   74.6940    4.4073 O   0  0  0  0  0  0  0  0  0  0  0  0
   24.6069   71.9803    2.6175 N   0  0  0  0  0  0  0  0  0  0  0  0
   25.1913   73.3141    4.4952 N   0  0  0  0  0  0  0  0  0  0  0  0
   24.3086   72.3780    3.9417 C   0  0  0  0  0  0  0  0  0  0  0  0
   25.7104   72.5128    1.9600 C   0  0  0  0  0  0  0  0  0  0  0  0
   26.5417   73.4056    2.5014 C   0  0  0  0  0  0  0  0  0  0  0  0
   26.3008   73.8738    3.8816 C   0  0  0  0  0  0  0  0  0  0  0  0
   25.0031   73.6062    5.4166 H   0  0  0  0  0  0  0  0  0  0  0  0
   21.6677   71.4491   -4.0451 O   0  0  0  0  0  0  0  0  0  0  0  0
   20.3940   70.9130   -3.2065 P   0  0  2  0  0  0  0  0  0  0  0  0
   19.9212   72.2180   -2.3752 O   0  0  0  0  0  0  0  0  0  0  0  0
   20.6790   69.7079   -2.3578 O   0  0  0  0  0  0  0  0  0  0  0  0
   19.2394   70.6941   -4.3128 O   0  0  0  0  0  0  0  0  0  0  0  0
   17.1861   71.7942   -4.7491 O   0  0  0  0  0  0  0  0  0  0  0  0
   15.9787   67.8885   -5.3309 O   0  0  0  0  0  0  0  0  0  0  0  0
   16.2783   69.6320   -7.5933 O   0  0  0  0  0  0  0  0  0  0  0  0
   17.8451   68.5223   -3.2109 O   0  0  0  0  0  0  0  0  0  0  0  0
   16.8893   68.9906   -5.3716 C   0  0  1  0  0  0  0  0  0  0  0  0
   16.2754   70.0879   -6.2433 C   0  0  1  0  0  0  0  0  0  0  0  0
   17.1206   69.4997   -3.9500 C   0  0  2  0  0  0  0  0  0  0  0  0
   17.0637   71.3989   -6.1204 C   0  0  1  0  0  0  0  0  0  0  0  0
   17.8701   70.8332   -3.9426 C   0  0  1  0  0  0  0  0  0  0  0  0
   15.8279   67.5602   -6.2303 H   0  0  0  0  0  0  0  0  0  0  0  0
   15.7777   68.8034   -7.6571 H   0  0  0  0  0  0  0  0  0  0  0  0
   17.3601   67.6830   -3.2229 H   0  0  0  0  0  0  0  0  0  0  0  0
   16.4057   72.2720   -8.2450 O   0  0  0  0  0  0  0  0  0  0  0  0
   16.3796   72.5486   -6.8568 C   0  0  0  0  0  0  0  0  0  0  0  0
   15.9735   72.9952   -8.7264 H   0  0  0  0  0  0  0  0  0  0  0  0
 25 28  1  0
 25 24  1  0
 25 26  1  1
 25 27  2  0
  1  4  1  0
  1 24  1  0
  1  2  1  6
  1  3  2  0
  6 11  1  0
  6 12  1  0
 29 36  1  0
 29 37  1  0
  9  7  1  1
  7 13  1  0
 10  8  1  1
  8 14  1  0
 37 28  1  6
  4  5  1  0
 33 30  1  1
 30 38  1  0
 34 31  1  6
 31 39  1  0
 35 32  1  1
 32 40  1  0
 41 42  1  0
 41 43  1  0
 15 19  2  0
 16 22  2  0
 12 17  1  6
 17 19  1  0
 17 20  1  0
 18 19  1  0
 18 22  1  0
 18 23  1  0
  9 10  1  0
  9 11  1  0
 10 12  1  0
 11  5  1  6
 33 34  1  0
 33 35  1  0
 34 36  1  0
 35 37  1  0
 36 42  1  6
 20 21  2  0
 21 22  1  0
M  CHG  2   2  -1  26  -1
M  END
>  <COMPND>  (93) 
    8629 

>  <AUTHOR>  (93) 
    GENERATED BY OPEN BABEL 3.1.1

>  <MASTER>  (93) 
        0    0    0    0    0    0    0    0   58    0   58    0

>  <minimizedAffinity>  (93) 
-7.86440

>  <CNNscore>  (93) 
0.4307299554

>  <CNNaffinity>  (93) 
4.0853638649

>  <CNN_VS>  (93) 
1.7596886158

>  <CNNaffinity_variance>  (93) 
0.1667594314

$$$$
94
     RDKit          3D

 43 45  0  0  0  0  0  0  0  0999 V2000
   19.1381   70.1782   -2.0143 P   0  0  2  0  0  0  0  0  0  0  0  0
   18.2331   71.4998   -1.7865 O   0  0  0  0  0  0  0  0  0  0  0  0
   18.3703   68.9359   -2.3584 O   0  0  0  0  0  0  0  0  0  0  0  0
   20.0471   70.0950   -0.6784 O   0  0  0  0  0  0  0  0  0  0  0  0
   21.4560   70.0438   -0.8213 C   0  0  0  0  0  0  0  0  0  0  0  0
   23.3912   71.0838    0.1519 O   0  0  0  0  0  0  0  0  0  0  0  0
   21.6725   71.6038    2.5533 O   0  0  0  0  0  0  0  0  0  0  0  0
   21.6795   74.0218    1.2925 O   0  0  0  0  0  0  0  0  0  0  0  0
   21.3201   71.6203    1.1710 C   0  0  1  0  0  0  0  0  0  0  0  0
   21.8675   72.8647    0.5036 C   0  0  2  0  0  0  0  0  0  0  0  0
   22.1032   70.5148    0.4739 C   0  0  1  0  0  0  0  0  0  0  0  0
   23.3340   72.5088    0.3280 C   0  0  2  0  0  0  0  0  0  0  0  0
   21.1845   72.3012    3.0196 H   0  0  0  0  0  0  0  0  0  0  0  0
   20.7309   74.2066    1.3748 H   0  0  0  0  0  0  0  0  0  0  0  0
   24.5119   75.0759    0.3524 O   0  0  0  0  0  0  0  0  0  0  0  0
   25.5426   74.8464   -4.1338 O   0  0  0  0  0  0  0  0  0  0  0  0
   23.9182   73.1442   -0.8194 N   0  0  0  0  0  0  0  0  0  0  0  0
   25.0243   74.9595   -1.8813 N   0  0  0  0  0  0  0  0  0  0  0  0
   24.4826   74.4356   -0.7006 C   0  0  0  0  0  0  0  0  0  0  0  0
   23.9279   72.4876   -2.0452 C   0  0  0  0  0  0  0  0  0  0  0  0
   24.4473   73.0015   -3.1621 C   0  0  0  0  0  0  0  0  0  0  0  0
   25.0568   74.3465   -3.1239 C   0  0  0  0  0  0  0  0  0  0  0  0
   25.4227   75.8581   -1.8227 H   0  0  0  0  0  0  0  0  0  0  0  0
   20.1940   70.6509   -3.1433 O   0  0  0  0  0  0  0  0  0  0  0  0
   20.1387   71.8685   -4.2051 P   0  0  2  0  0  0  0  0  0  0  0  0
   21.5701   71.7737   -4.9532 O   0  0  0  0  0  0  0  0  0  0  0  0
   19.8483   73.2075   -3.5913 O   0  0  0  0  0  0  0  0  0  0  0  0
   19.0666   71.3947   -5.3146 O   0  0  0  0  0  0  0  0  0  0  0  0
   18.1331   69.2244   -5.5017 O   0  0  0  0  0  0  0  0  0  0  0  0
   18.0124   70.3393   -9.4757 O   0  0  0  0  0  0  0  0  0  0  0  0
   15.5728   70.2035   -7.9665 O   0  0  0  0  0  0  0  0  0  0  0  0
   20.2713   71.0966   -7.8315 O   0  0  0  0  0  0  0  0  0  0  0  0
   17.9384   70.5440   -8.0622 C   0  0  1  0  0  0  0  0  0  0  0  0
   16.8119   69.6687   -7.5093 C   0  0  1  0  0  0  0  0  0  0  0  0
   19.2759   70.1609   -7.4316 C   0  0  2  0  0  0  0  0  0  0  0  0
   16.8433   69.6290   -5.9755 C   0  0  1  0  0  0  0  0  0  0  0  0
   19.1849   70.1032   -5.9057 C   0  0  1  0  0  0  0  0  0  0  0  0
   17.1665   70.5812   -9.8823 H   0  0  0  0  0  0  0  0  0  0  0  0
   15.5662   70.2236   -8.9364 H   0  0  0  0  0  0  0  0  0  0  0  0
   20.3193   71.1236   -8.7994 H   0  0  0  0  0  0  0  0  0  0  0  0
   15.8053   68.7766   -3.9994 O   0  0  0  0  0  0  0  0  0  0  0  0
   15.8288   68.6385   -5.4082 C   0  0  0  0  0  0  0  0  0  0  0  0
   15.1636   68.1525   -3.6246 H   0  0  0  0  0  0  0  0  0  0  0  0
 25 28  1  0
 25 24  1  0
 25 26  1  6
 25 27  2  0
  1  4  1  0
  1 24  1  0
  1  2  1  1
  1  3  2  0
  6 11  1  0
  6 12  1  0
 29 36  1  0
 29 37  1  0
  9  7  1  1
  7 13  1  0
 10  8  1  1
  8 14  1  0
 37 28  1  6
  4  5  1  0
 33 30  1  6
 30 38  1  0
 34 31  1  1
 31 39  1  0
 35 32  1  1
 32 40  1  0
 41 42  1  0
 41 43  1  0
 15 19  2  0
 16 22  2  0
 12 17  1  6
 17 19  1  0
 17 20  1  0
 18 19  1  0
 18 22  1  0
 18 23  1  0
  9 10  1  0
  9 11  1  0
 10 12  1  0
 11  5  1  6
 33 34  1  0
 33 35  1  0
 34 36  1  0
 35 37  1  0
 36 42  1  6
 20 21  2  0
 21 22  1  0
M  CHG  2   2  -1  26  -1
M  END
>  <COMPND>  (94) 
    8629 

>  <AUTHOR>  (94) 
    GENERATED BY OPEN BABEL 3.1.1

>  <MASTER>  (94) 
        0    0    0    0    0    0    0    0   58    0   58    0

>  <minimizedAffinity>  (94) 
-7.12890

>  <CNNscore>  (94) 
0.4278194904

>  <CNNaffinity>  (94) 
4.0735464096

>  <CNN_VS>  (94) 
1.7427425385

>  <CNNaffinity_variance>  (94) 
0.2090819776

$$$$
95
     RDKit          3D

 43 45  0  0  0  0  0  0  0  0999 V2000
   18.1875   69.7874   -2.2368 P   0  0  2  0  0  0  0  0  0  0  0  0
   19.6028   69.1940   -2.7489 O   0  0  0  0  0  0  0  0  0  0  0  0
   17.3687   68.8445   -1.4051 O   0  0  0  0  0  0  0  0  0  0  0  0
   17.4807   70.3270   -3.5885 O   0  0  0  0  0  0  0  0  0  0  0  0
   16.7963   69.3980   -4.4108 C   0  0  0  0  0  0  0  0  0  0  0  0
   16.8130   71.3488   -5.8135 O   0  0  0  0  0  0  0  0  0  0  0  0
   14.8486   69.8898   -7.5466 O   0  0  0  0  0  0  0  0  0  0  0  0
   17.1931   69.5632   -8.9006 O   0  0  0  0  0  0  0  0  0  0  0  0
   15.9599   69.3770   -6.8135 C   0  0  1  0  0  0  0  0  0  0  0  0
   17.2583   69.7452   -7.5008 C   0  0  2  0  0  0  0  0  0  0  0  0
   16.0597   70.1550   -5.5074 C   0  0  1  0  0  0  0  0  0  0  0  0
   17.4201   71.2038   -7.1078 C   0  0  2  0  0  0  0  0  0  0  0  0
   14.7645   69.4081   -8.3850 H   0  0  0  0  0  0  0  0  0  0  0  0
   17.0903   68.6195   -9.0997 H   0  0  0  0  0  0  0  0  0  0  0  0
   18.2965   73.8445   -6.6213 O   0  0  0  0  0  0  0  0  0  0  0  0
   22.7308   72.6020   -6.8063 O   0  0  0  0  0  0  0  0  0  0  0  0
   18.7980   71.5986   -7.0234 N   0  0  0  0  0  0  0  0  0  0  0  0
   20.5038   73.2236   -6.7136 N   0  0  0  0  0  0  0  0  0  0  0  0
   19.1313   72.9508   -6.7764 C   0  0  0  0  0  0  0  0  0  0  0  0
   19.8018   70.6498   -7.1844 C   0  0  0  0  0  0  0  0  0  0  0  0
   21.1060   70.9265   -7.1230 C   0  0  0  0  0  0  0  0  0  0  0  0
   21.5392   72.3156   -6.8684 C   0  0  0  0  0  0  0  0  0  0  0  0
   20.7598   74.1591   -6.5429 H   0  0  0  0  0  0  0  0  0  0  0  0
   18.6168   71.1509   -1.4820 O   0  0  0  0  0  0  0  0  0  0  0  0
   19.9773   71.5519   -0.7067 P   0  0  2  0  0  0  0  0  0  0  0  0
   20.4934   70.1400   -0.1085 O   0  0  0  0  0  0  0  0  0  0  0  0
   19.8045   72.6334    0.3201 O   0  0  0  0  0  0  0  0  0  0  0  0
   21.0273   71.9055   -1.8804 O   0  0  0  0  0  0  0  0  0  0  0  0
   22.9418   72.6690   -0.7105 O   0  0  0  0  0  0  0  0  0  0  0  0
   24.3929   72.8956   -4.5698 O   0  0  0  0  0  0  0  0  0  0  0  0
   25.3424   70.8282   -2.8170 O   0  0  0  0  0  0  0  0  0  0  0  0
   21.6452   73.6186   -4.0155 O   0  0  0  0  0  0  0  0  0  0  0  0
   23.6230   72.3453   -3.4975 C   0  0  1  0  0  0  0  0  0  0  0  0
   24.5818   71.9484   -2.3732 C   0  0  1  0  0  0  0  0  0  0  0  0
   22.6264   73.3946   -3.0087 C   0  0  2  0  0  0  0  0  0  0  0  0
   23.8164   71.5998   -1.0896 C   0  0  1  0  0  0  0  0  0  0  0  0
   21.9564   72.9711   -1.7003 C   0  0  1  0  0  0  0  0  0  0  0  0
   25.0273   72.2341   -4.8851 H   0  0  0  0  0  0  0  0  0  0  0  0
   25.8204   71.0614   -3.6284 H   0  0  0  0  0  0  0  0  0  0  0  0
   22.0819   73.8863   -4.8385 H   0  0  0  0  0  0  0  0  0  0  0  0
   25.5462   70.2140   -0.1974 O   0  0  0  0  0  0  0  0  0  0  0  0
   24.7568   71.3539    0.0882 C   0  0  0  0  0  0  0  0  0  0  0  0
   26.1499   70.0456    0.5435 H   0  0  0  0  0  0  0  0  0  0  0  0
 25 28  1  0
 25 24  1  0
 25 26  1  1
 25 27  2  0
  1  4  1  0
  1 24  1  0
  1  2  1  6
  1  3  2  0
  6 11  1  0
  6 12  1  0
 29 36  1  0
 29 37  1  0
  9  7  1  6
  7 13  1  0
 10  8  1  6
  8 14  1  0
 37 28  1  6
  4  5  1  0
 33 30  1  6
 30 38  1  0
 34 31  1  6
 31 39  1  0
 35 32  1  6
 32 40  1  0
 41 42  1  0
 41 43  1  0
 15 19  2  0
 16 22  2  0
 12 17  1  1
 17 19  1  0
 17 20  1  0
 18 19  1  0
 18 22  1  0
 18 23  1  0
  9 10  1  0
  9 11  1  0
 10 12  1  0
 11  5  1  1
 33 34  1  0
 33 35  1  0
 34 36  1  0
 35 37  1  0
 36 42  1  1
 20 21  2  0
 21 22  1  0
M  CHG  2   2  -1  26  -1
M  END
>  <COMPND>  (95) 
    8629 

>  <AUTHOR>  (95) 
    GENERATED BY OPEN BABEL 3.1.1

>  <MASTER>  (95) 
        0    0    0    0    0    0    0    0   58    0   58    0

>  <minimizedAffinity>  (95) 
-7.85431

>  <CNNscore>  (95) 
0.4086309671

>  <CNNaffinity>  (95) 
4.0767869949

>  <CNN_VS>  (95) 
1.6659014225

>  <CNNaffinity_variance>  (95) 
1.0865743160

$$$$
96
     RDKit          3D

 43 45  0  0  0  0  0  0  0  0999 V2000
   20.3061   71.6414   -3.7887 P   0  0  2  0  0  0  0  0  0  0  0  0
   19.1645   70.5052   -3.6372 O   0  0  0  0  0  0  0  0  0  0  0  0
   21.3384   71.3661   -4.8423 O   0  0  0  0  0  0  0  0  0  0  0  0
   20.8705   71.8280   -2.2839 O   0  0  0  0  0  0  0  0  0  0  0  0
   22.2709   71.7716   -2.0752 C   0  0  0  0  0  0  0  0  0  0  0  0
   23.8855   70.9081   -0.5191 O   0  0  0  0  0  0  0  0  0  0  0  0
   21.6358   69.2938    0.6314 O   0  0  0  0  0  0  0  0  0  0  0  0
   21.8467   71.3619    2.3964 O   0  0  0  0  0  0  0  0  0  0  0  0
   21.6153   70.6153    0.0941 C   0  0  1  0  0  0  0  0  0  0  0  0
   22.2566   71.5867    1.0629 C   0  0  2  0  0  0  0  0  0  0  0  0
   22.5800   70.6577   -1.0843 C   0  0  1  0  0  0  0  0  0  0  0  0
   23.7358   71.3120    0.8518 C   0  0  2  0  0  0  0  0  0  0  0  0
   21.0269   69.2420    1.3853 H   0  0  0  0  0  0  0  0  0  0  0  0
   20.8989   71.5502    2.4796 H   0  0  0  0  0  0  0  0  0  0  0  0
   25.9699   71.3733    2.5789 O   0  0  0  0  0  0  0  0  0  0  0  0
   26.7745   75.8211    1.6787 O   0  0  0  0  0  0  0  0  0  0  0  0
   24.5475   72.4727    1.0872 N   0  0  0  0  0  0  0  0  0  0  0  0
   26.3688   73.5879    2.1291 N   0  0  0  0  0  0  0  0  0  0  0  0
   25.6465   72.3978    1.9744 C   0  0  0  0  0  0  0  0  0  0  0  0
   24.2510   73.6682    0.4417 C   0  0  0  0  0  0  0  0  0  0  0  0
   24.9489   74.7946    0.6011 C   0  0  0  0  0  0  0  0  0  0  0  0
   26.1127   74.8014    1.5108 C   0  0  0  0  0  0  0  0  0  0  0  0
   27.1386   73.5596    2.7427 H   0  0  0  0  0  0  0  0  0  0  0  0
   19.4473   72.9904   -4.0245 O   0  0  0  0  0  0  0  0  0  0  0  0
   17.8956   73.3274   -3.7219 P   0  0  2  0  0  0  0  0  0  0  0  0
   17.7617   74.8802   -4.1560 O   0  0  0  0  0  0  0  0  0  0  0  0
   17.4669   73.0393   -2.3123 O   0  0  0  0  0  0  0  0  0  0  0  0
   17.0739   72.5165   -4.8499 O   0  0  0  0  0  0  0  0  0  0  0  0
   17.9125   71.7057   -6.9129 O   0  0  0  0  0  0  0  0  0  0  0  0
   14.0143   72.4704   -8.0400 O   0  0  0  0  0  0  0  0  0  0  0  0
   14.8925   69.7542   -7.7254 O   0  0  0  0  0  0  0  0  0  0  0  0
   15.3735   74.2728   -6.2280 O   0  0  0  0  0  0  0  0  0  0  0  0
   15.0580   72.0694   -7.1482 C   0  0  1  0  0  0  0  0  0  0  0  0
   15.7795   70.8687   -7.7634 C   0  0  1  0  0  0  0  0  0  0  0  0
   16.0247   73.2361   -6.9544 C   0  0  2  0  0  0  0  0  0  0  0  0
   17.0723   70.5490   -7.0008 C   0  0  1  0  0  0  0  0  0  0  0  0
   17.2985   72.7996   -6.2286 C   0  0  1  0  0  0  0  0  0  0  0  0
   13.3967   71.7342   -8.1669 H   0  0  0  0  0  0  0  0  0  0  0  0
   14.0801   69.9693   -8.2100 H   0  0  0  0  0  0  0  0  0  0  0  0
   14.5689   74.5405   -6.6979 H   0  0  0  0  0  0  0  0  0  0  0  0
   17.4785   69.3767   -9.0428 O   0  0  0  0  0  0  0  0  0  0  0  0
   17.8875   69.4568   -7.6898 C   0  0  0  0  0  0  0  0  0  0  0  0
   17.9892   68.6858   -9.4940 H   0  0  0  0  0  0  0  0  0  0  0  0
 25 28  1  0
 25 24  1  0
 25 26  1  6
 25 27  2  0
  1  4  1  0
  1 24  1  0
  1  2  1  1
  1  3  2  0
  6 11  1  0
  6 12  1  0
 29 36  1  0
 29 37  1  0
  9  7  1  1
  7 13  1  0
 10  8  1  1
  8 14  1  0
 37 28  1  1
  4  5  1  0
 33 30  1  6
 30 38  1  0
 34 31  1  1
 31 39  1  0
 35 32  1  1
 32 40  1  0
 41 42  1  0
 41 43  1  0
 15 19  2  0
 16 22  2  0
 12 17  1  6
 17 19  1  0
 17 20  1  0
 18 19  1  0
 18 22  1  0
 18 23  1  0
  9 10  1  0
  9 11  1  0
 10 12  1  0
 11  5  1  6
 33 34  1  0
 33 35  1  0
 34 36  1  0
 35 37  1  0
 36 42  1  6
 20 21  2  0
 21 22  1  0
M  CHG  2   2  -1  26  -1
M  END
>  <COMPND>  (96) 
    8629 

>  <AUTHOR>  (96) 
    GENERATED BY OPEN BABEL 3.1.1

>  <MASTER>  (96) 
        0    0    0    0    0    0    0    0   58    0   58    0

>  <minimizedAffinity>  (96) 
-6.39196

>  <CNNscore>  (96) 
0.4041571319

>  <CNNaffinity>  (96) 
4.0456571579

>  <CNN_VS>  (96) 
1.6350811720

>  <CNNaffinity_variance>  (96) 
0.1196334139

$$$$
97
     RDKit          3D

 43 45  0  0  0  0  0  0  0  0999 V2000
   20.7654   71.6928   -3.1910 P   0  0  2  0  0  0  0  0  0  0  0  0
   19.2960   71.2362   -2.6913 O   0  0  0  0  0  0  0  0  0  0  0  0
   21.6032   70.5967   -3.7811 O   0  0  0  0  0  0  0  0  0  0  0  0
   21.3967   72.4448   -1.9049 O   0  0  0  0  0  0  0  0  0  0  0  0
   22.7674   72.2419   -1.6085 C   0  0  0  0  0  0  0  0  0  0  0  0
   24.1214   71.2030    0.0829 O   0  0  0  0  0  0  0  0  0  0  0  0
   21.6852   69.6021    0.7849 O   0  0  0  0  0  0  0  0  0  0  0  0
   21.7090   71.5263    2.7171 O   0  0  0  0  0  0  0  0  0  0  0  0
   21.7799   70.9588    0.3540 C   0  0  1  0  0  0  0  0  0  0  0  0
   22.3082   71.8306    1.4740 C   0  0  2  0  0  0  0  0  0  0  0  0
   22.9010   71.0474   -0.6739 C   0  0  1  0  0  0  0  0  0  0  0  0
   23.7934   71.5121    1.4474 C   0  0  2  0  0  0  0  0  0  0  0  0
   20.9754   69.5204    1.4417 H   0  0  0  0  0  0  0  0  0  0  0  0
   20.7650   71.7465    2.6836 H   0  0  0  0  0  0  0  0  0  0  0  0
   26.4325   71.2780    2.4265 O   0  0  0  0  0  0  0  0  0  0  0  0
   26.7866   75.8258    3.0851 O   0  0  0  0  0  0  0  0  0  0  0  0
   24.5987   72.6187    1.8814 N   0  0  0  0  0  0  0  0  0  0  0  0
   26.6067   73.5427    2.7534 N   0  0  0  0  0  0  0  0  0  0  0  0
   25.9115   72.3931    2.3570 C   0  0  0  0  0  0  0  0  0  0  0  0
   24.0857   73.9103    1.8326 C   0  0  0  0  0  0  0  0  0  0  0  0
   24.7611   74.9958    2.2156 C   0  0  0  0  0  0  0  0  0  0  0  0
   26.1396   74.8472    2.7251 C   0  0  0  0  0  0  0  0  0  0  0  0
   27.5231   73.4099    3.0887 H   0  0  0  0  0  0  0  0  0  0  0  0
   20.4429   72.9118   -4.2025 O   0  0  0  0  0  0  0  0  0  0  0  0
   20.3115   72.9481   -5.8132 P   0  0  2  0  0  0  0  0  0  0  0  0
   21.5846   72.0814   -6.3089 O   0  0  0  0  0  0  0  0  0  0  0  0
   20.2398   74.3308   -6.3937 O   0  0  0  0  0  0  0  0  0  0  0  0
   19.0333   72.0184   -6.1399 O   0  0  0  0  0  0  0  0  0  0  0  0
   18.3292   69.8675   -5.4368 O   0  0  0  0  0  0  0  0  0  0  0  0
   17.4774   69.5565   -9.4653 O   0  0  0  0  0  0  0  0  0  0  0  0
   15.3285   69.8125   -7.5773 O   0  0  0  0  0  0  0  0  0  0  0  0
   19.8634   70.9467   -8.5971 O   0  0  0  0  0  0  0  0  0  0  0  0
   17.5987   70.2254   -8.2071 C   0  0  1  0  0  0  0  0  0  0  0  0
   16.6747   69.5318   -7.2042 C   0  0  1  0  0  0  0  0  0  0  0  0
   19.0513   70.1513   -7.7403 C   0  0  2  0  0  0  0  0  0  0  0  0
   16.9451   70.0176   -5.7738 C   0  0  1  0  0  0  0  0  0  0  0  0
   19.2024   70.6111   -6.2891 C   0  0  1  0  0  0  0  0  0  0  0  0
   16.5575   69.6004   -9.7676 H   0  0  0  0  0  0  0  0  0  0  0  0
   15.1710   69.5012   -8.4826 H   0  0  0  0  0  0  0  0  0  0  0  0
   19.7591   70.6455   -9.5126 H   0  0  0  0  0  0  0  0  0  0  0  0
   15.8897   67.9359   -5.2625 O   0  0  0  0  0  0  0  0  0  0  0  0
   16.1460   69.2266   -4.7404 C   0  0  0  0  0  0  0  0  0  0  0  0
   15.3821   67.4210   -4.6153 H   0  0  0  0  0  0  0  0  0  0  0  0
 25 28  1  0
 25 24  1  0
 25 26  1  6
 25 27  2  0
  1  4  1  0
  1 24  1  0
  1  2  1  1
  1  3  2  0
  6 11  1  0
  6 12  1  0
 29 36  1  0
 29 37  1  0
  9  7  1  1
  7 13  1  0
 10  8  1  1
  8 14  1  0
 37 28  1  6
  4  5  1  0
 33 30  1  6
 30 38  1  0
 34 31  1  6
 31 39  1  0
 35 32  1  6
 32 40  1  0
 41 42  1  0
 41 43  1  0
 15 19  2  0
 16 22  2  0
 12 17  1  6
 17 19  1  0
 17 20  1  0
 18 19  1  0
 18 22  1  0
 18 23  1  0
  9 10  1  0
  9 11  1  0
 10 12  1  0
 11  5  1  6
 33 34  1  0
 33 35  1  0
 34 36  1  0
 35 37  1  0
 36 42  1  1
 20 21  2  0
 21 22  1  0
M  CHG  2   2  -1  26  -1
M  END
>  <COMPND>  (97) 
    8629 

>  <AUTHOR>  (97) 
    GENERATED BY OPEN BABEL 3.1.1

>  <MASTER>  (97) 
        0    0    0    0    0    0    0    0   58    0   58    0

>  <minimizedAffinity>  (97) 
-7.58187

>  <CNNscore>  (97) 
0.4012305140

>  <CNNaffinity>  (97) 
4.1431894302

>  <CNN_VS>  (97) 
1.6623740196

>  <CNNaffinity_variance>  (97) 
0.2035073936

$$$$
98
     RDKit          3D

 43 45  0  0  0  0  0  0  0  0999 V2000
   19.1347   71.1896   -2.0386 P   0  0  2  0  0  0  0  0  0  0  0  0
   19.2685   69.7444   -1.3239 O   0  0  0  0  0  0  0  0  0  0  0  0
   19.1363   72.3622   -1.1024 O   0  0  0  0  0  0  0  0  0  0  0  0
   17.8238   71.0400   -2.9751 O   0  0  0  0  0  0  0  0  0  0  0  0
   17.8467   70.0864   -4.0229 C   0  0  0  0  0  0  0  0  0  0  0  0
   15.6512   70.9192   -4.5326 O   0  0  0  0  0  0  0  0  0  0  0  0
   15.0926   68.2062   -5.6808 O   0  0  0  0  0  0  0  0  0  0  0  0
   15.5846   69.7037   -7.9061 O   0  0  0  0  0  0  0  0  0  0  0  0
   16.3010   68.9642   -5.7036 C   0  0  1  0  0  0  0  0  0  0  0  0
   16.1874   70.1053   -6.6928 C   0  0  2  0  0  0  0  0  0  0  0  0
   16.4161   69.7039   -4.3766 C   0  0  1  0  0  0  0  0  0  0  0  0
   15.3423   71.1063   -5.9234 C   0  0  2  0  0  0  0  0  0  0  0  0
   14.9974   67.7246   -6.5180 H   0  0  0  0  0  0  0  0  0  0  0  0
   16.1602   69.0673   -8.3582 H   0  0  0  0  0  0  0  0  0  0  0  0
   14.0743   72.5030   -8.0256 O   0  0  0  0  0  0  0  0  0  0  0  0
   16.5451   76.3115   -7.2306 O   0  0  0  0  0  0  0  0  0  0  0  0
   15.6345   72.4640   -6.2874 N   0  0  0  0  0  0  0  0  0  0  0  0
   15.3055   74.3982   -7.6279 N   0  0  0  0  0  0  0  0  0  0  0  0
   14.9415   73.0725   -7.3598 C   0  0  0  0  0  0  0  0  0  0  0  0
   16.5986   73.1779   -5.5840 C   0  0  0  0  0  0  0  0  0  0  0  0
   16.9350   74.4411   -5.8531 C   0  0  0  0  0  0  0  0  0  0  0  0
   16.2581   75.1498   -6.9584 C   0  0  0  0  0  0  0  0  0  0  0  0
   14.8361   74.8425   -8.3710 H   0  0  0  0  0  0  0  0  0  0  0  0
   20.3476   71.1803   -3.1072 O   0  0  0  0  0  0  0  0  0  0  0  0
   21.9496   71.1441   -2.8944 P   0  0  2  0  0  0  0  0  0  0  0  0
   22.4802   72.3201   -3.8706 O   0  0  0  0  0  0  0  0  0  0  0  0
   22.5735   69.8019   -3.1458 O   0  0  0  0  0  0  0  0  0  0  0  0
   22.1767   71.7186   -1.4033 O   0  0  0  0  0  0  0  0  0  0  0  0
   24.2897   72.0603   -0.3859 O   0  0  0  0  0  0  0  0  0  0  0  0
   22.0361   71.3421    2.9988 O   0  0  0  0  0  0  0  0  0  0  0  0
   22.9550   74.0063    2.4461 O   0  0  0  0  0  0  0  0  0  0  0  0
   21.5234   69.8410    0.5774 O   0  0  0  0  0  0  0  0  0  0  0  0
   22.2868   71.8406    1.6820 C   0  0  1  0  0  0  0  0  0  0  0  0
   23.4326   72.8513    1.7620 C   0  0  1  0  0  0  0  0  0  0  0  0
   22.6615   70.6741    0.7697 C   0  0  2  0  0  0  0  0  0  0  0  0
   23.9365   73.2294    0.3626 C   0  0  1  0  0  0  0  0  0  0  0  0
   23.1963   71.1606   -0.5784 C   0  0  1  0  0  0  0  0  0  0  0  0
   21.7971   72.0777    3.5830 H   0  0  0  0  0  0  0  0  0  0  0  0
   22.6394   73.7538    3.3281 H   0  0  0  0  0  0  0  0  0  0  0  0
   21.1945   69.5393    1.4380 H   0  0  0  0  0  0  0  0  0  0  0  0
   24.7726   75.4461    0.6721 O   0  0  0  0  0  0  0  0  0  0  0  0
   25.1802   74.1136    0.4221 C   0  0  0  0  0  0  0  0  0  0  0  0
   25.5539   76.0203    0.7129 H   0  0  0  0  0  0  0  0  0  0  0  0
 25 28  1  0
 25 24  1  0
 25 26  1  6
 25 27  2  0
  1  4  1  0
  1 24  1  0
  1  2  1  1
  1  3  2  0
  6 11  1  0
  6 12  1  0
 29 36  1  0
 29 37  1  0
  9  7  1  1
  7 13  1  0
 10  8  1  6
  8 14  1  0
 37 28  1  1
  4  5  1  0
 33 30  1  1
 30 38  1  0
 34 31  1  6
 31 39  1  0
 35 32  1  6
 32 40  1  0
 41 42  1  0
 41 43  1  0
 15 19  2  0
 16 22  2  0
 12 17  1  6
 17 19  1  0
 17 20  1  0
 18 19  1  0
 18 22  1  0
 18 23  1  0
  9 10  1  0
  9 11  1  0
 10 12  1  0
 11  5  1  6
 33 34  1  0
 33 35  1  0
 34 36  1  0
 35 37  1  0
 36 42  1  1
 20 21  2  0
 21 22  1  0
M  CHG  2   2  -1  26  -1
M  END
>  <COMPND>  (98) 
    8629 

>  <AUTHOR>  (98) 
    GENERATED BY OPEN BABEL 3.1.1

>  <MASTER>  (98) 
        0    0    0    0    0    0    0    0   58    0   58    0

>  <minimizedAffinity>  (98) 
-6.49642

>  <CNNscore>  (98) 
0.3932477534

>  <CNNaffinity>  (98) 
4.1582083702

>  <CNN_VS>  (98) 
1.6352061033

>  <CNNaffinity_variance>  (98) 
0.0886505842

$$$$
99
     RDKit          3D

 43 45  0  0  0  0  0  0  0  0999 V2000
   21.2380   70.4615   -0.6732 P   0  0  2  0  0  0  0  0  0  0  0  0
   21.5551   69.8628   -2.1423 O   0  0  0  0  0  0  0  0  0  0  0  0
   21.4601   69.5059    0.4621 O   0  0  0  0  0  0  0  0  0  0  0  0
   19.7383   71.0532   -0.8103 O   0  0  0  0  0  0  0  0  0  0  0  0
   19.0705   70.9213   -2.0531 C   0  0  0  0  0  0  0  0  0  0  0  0
   17.2901   71.9744   -3.2759 O   0  0  0  0  0  0  0  0  0  0  0  0
   15.5667   71.4074   -0.8886 O   0  0  0  0  0  0  0  0  0  0  0  0
   14.8534   69.4256   -2.6208 O   0  0  0  0  0  0  0  0  0  0  0  0
   16.6169   70.6219   -1.4501 C   0  0  1  0  0  0  0  0  0  0  0  0
   16.1540   69.9662   -2.7344 C   0  0  2  0  0  0  0  0  0  0  0  0
   17.6979   71.5722   -1.9499 C   0  0  1  0  0  0  0  0  0  0  0  0
   16.2235   71.1202   -3.7202 C   0  0  2  0  0  0  0  0  0  0  0  0
   14.8646   70.8222   -0.5622 H   0  0  0  0  0  0  0  0  0  0  0  0
   14.8613   68.6952   -1.9826 H   0  0  0  0  0  0  0  0  0  0  0  0
   15.1351   72.2960   -6.0462 O   0  0  0  0  0  0  0  0  0  0  0  0
   17.3690   69.3528   -8.8008 O   0  0  0  0  0  0  0  0  0  0  0  0
   16.5039   70.6814   -5.0582 N   0  0  0  0  0  0  0  0  0  0  0  0
   16.2484   70.8297   -7.4159 N   0  0  0  0  0  0  0  0  0  0  0  0
   15.9049   71.3397   -6.1574 C   0  0  0  0  0  0  0  0  0  0  0  0
   17.3647   69.6099   -5.2700 C   0  0  0  0  0  0  0  0  0  0  0  0
   17.6810   69.1349   -6.4764 C   0  0  0  0  0  0  0  0  0  0  0  0
   17.0979   69.7664   -7.6778 C   0  0  0  0  0  0  0  0  0  0  0  0
   15.8428   71.2723   -8.1965 H   0  0  0  0  0  0  0  0  0  0  0  0
   22.1509   71.7944   -0.6190 O   0  0  0  0  0  0  0  0  0  0  0  0
   23.7545   71.9800   -0.5351 P   0  0  2  0  0  0  0  0  0  0  0  0
   24.0216   73.3052   -1.4239 O   0  0  0  0  0  0  0  0  0  0  0  0
   24.5370   70.7748   -0.9698 O   0  0  0  0  0  0  0  0  0  0  0  0
   24.0328   72.4457    0.9850 O   0  0  0  0  0  0  0  0  0  0  0  0
   25.6066   71.4998    2.4833 O   0  0  0  0  0  0  0  0  0  0  0  0
   22.7495   72.7130    5.2065 O   0  0  0  0  0  0  0  0  0  0  0  0
   25.2344   74.1418    5.0269 O   0  0  0  0  0  0  0  0  0  0  0  0
   21.9373   71.6126    2.6553 O   0  0  0  0  0  0  0  0  0  0  0  0
   23.5326   72.8013    4.0130 C   0  0  1  0  0  0  0  0  0  0  0  0
   25.0077   72.8766    4.4118 C   0  0  1  0  0  0  0  0  0  0  0  0
   23.2707   71.5672    3.1518 C   0  0  2  0  0  0  0  0  0  0  0  0
   25.9211   72.7050    3.1906 C   0  0  1  0  0  0  0  0  0  0  0  0
   24.2647   71.4656    1.9934 C   0  0  1  0  0  0  0  0  0  0  0  0
   22.9108   73.4939    5.7577 H   0  0  0  0  0  0  0  0  0  0  0  0
   24.6511   74.2377    5.7962 H   0  0  0  0  0  0  0  0  0  0  0  0
   21.3178   71.6765    3.3982 H   0  0  0  0  0  0  0  0  0  0  0  0
   27.9454   71.4482    3.0116 O   0  0  0  0  0  0  0  0  0  0  0  0
   27.3938   72.6190    3.5855 C   0  0  0  0  0  0  0  0  0  0  0  0
   28.8825   71.3806    3.2542 H   0  0  0  0  0  0  0  0  0  0  0  0
 25 28  1  0
 25 24  1  0
 25 26  1  6
 25 27  2  0
  1  4  1  0
  1 24  1  0
  1  2  1  6
  1  3  2  0
  6 11  1  0
  6 12  1  0
 29 36  1  0
 29 37  1  0
  9  7  1  6
  7 13  1  0
 10  8  1  1
  8 14  1  0
 37 28  1  6
  4  5  1  0
 33 30  1  1
 30 38  1  0
 34 31  1  6
 31 39  1  0
 35 32  1  6
 32 40  1  0
 41 42  1  0
 41 43  1  0
 15 19  2  0
 16 22  2  0
 12 17  1  6
 17 19  1  0
 17 20  1  0
 18 19  1  0
 18 22  1  0
 18 23  1  0
  9 10  1  0
  9 11  1  0
 10 12  1  0
 11  5  1  6
 33 34  1  0
 33 35  1  0
 34 36  1  0
 35 37  1  0
 36 42  1  1
 20 21  2  0
 21 22  1  0
M  CHG  2   2  -1  26  -1
M  END
>  <COMPND>  (99) 
    8629 

>  <AUTHOR>  (99) 
    GENERATED BY OPEN BABEL 3.1.1

>  <MASTER>  (99) 
        0    0    0    0    0    0    0    0   58    0   58    0

>  <minimizedAffinity>  (99) 
-7.24129

>  <CNNscore>  (99) 
0.3912701309

>  <CNNaffinity>  (99) 
4.2076153755

>  <CNN_VS>  (99) 
1.6463142633

>  <CNNaffinity_variance>  (99) 
0.0233617853

$$$$
100
     RDKit          3D

 43 45  0  0  0  0  0  0  0  0999 V2000
   22.9684   73.0990   -4.5943 P   0  0  2  0  0  0  0  0  0  0  0  0
   22.7954   74.7060   -4.5223 O   0  0  0  0  0  0  0  0  0  0  0  0
   23.6785   72.5921   -5.8150 O   0  0  0  0  0  0  0  0  0  0  0  0
   21.4681   72.5364   -4.3698 O   0  0  0  0  0  0  0  0  0  0  0  0
   20.4954   72.7871   -5.3692 C   0  0  0  0  0  0  0  0  0  0  0  0
   19.8511   70.4849   -5.6108 O   0  0  0  0  0  0  0  0  0  0  0  0
   19.9824   70.9532   -8.5696 O   0  0  0  0  0  0  0  0  0  0  0  0
   17.3056   71.0843   -8.0653 O   0  0  0  0  0  0  0  0  0  0  0  0
   19.5556   71.8372   -7.5343 C   0  0  1  0  0  0  0  0  0  0  0  0
   18.1926   71.4244   -7.0192 C   0  0  2  0  0  0  0  0  0  0  0  0
   20.4413   71.5975   -6.3179 C   0  0  1  0  0  0  0  0  0  0  0  0
   18.5361   70.2378   -6.1348 C   0  0  2  0  0  0  0  0  0  0  0  0
   19.4315   71.0881   -9.3571 H   0  0  0  0  0  0  0  0  0  0  0  0
   17.1179   71.8719   -8.5992 H   0  0  0  0  0  0  0  0  0  0  0  0
   16.0175   68.9738   -6.3268 O   0  0  0  0  0  0  0  0  0  0  0  0
   15.1006   69.7168   -1.8716 O   0  0  0  0  0  0  0  0  0  0  0  0
   17.6189   70.0866   -5.0406 N   0  0  0  0  0  0  0  0  0  0  0  0
   15.5630   69.3446   -4.1083 N   0  0  0  0  0  0  0  0  0  0  0  0
   16.3790   69.4368   -5.2430 C   0  0  0  0  0  0  0  0  0  0  0  0
   17.9524   70.5794   -3.7837 C   0  0  0  0  0  0  0  0  0  0  0  0
   17.1625   70.4845   -2.7121 C   0  0  0  0  0  0  0  0  0  0  0  0
   15.8495   69.8197   -2.8382 C   0  0  0  0  0  0  0  0  0  0  0  0
   14.6941   68.8962   -4.2255 H   0  0  0  0  0  0  0  0  0  0  0  0
   23.7006   72.7493   -3.1962 O   0  0  0  0  0  0  0  0  0  0  0  0
   23.8603   71.3502   -2.4025 P   0  0  2  0  0  0  0  0  0  0  0  0
   25.3859   70.9154   -2.7202 O   0  0  0  0  0  0  0  0  0  0  0  0
   22.8335   70.3165   -2.7647 O   0  0  0  0  0  0  0  0  0  0  0  0
   23.8710   71.7644   -0.8426 O   0  0  0  0  0  0  0  0  0  0  0  0
   24.9577   70.9039    1.0797 O   0  0  0  0  0  0  0  0  0  0  0  0
   21.2163   71.5879    2.6875 O   0  0  0  0  0  0  0  0  0  0  0  0
   23.4046   73.3021    3.4090 O   0  0  0  0  0  0  0  0  0  0  0  0
   21.4645   70.5815   -0.0153 O   0  0  0  0  0  0  0  0  0  0  0  0
   22.3369   71.8486    1.8380 C   0  0  1  0  0  0  0  0  0  0  0  0
   23.5677   72.0652    2.7207 C   0  0  1  0  0  0  0  0  0  0  0  0
   22.5460   70.6554    0.9074 C   0  0  2  0  0  0  0  0  0  0  0  0
   24.8534   72.0852    1.8832 C   0  0  1  0  0  0  0  0  0  0  0  0
   23.8764   70.7498    0.1583 C   0  0  1  0  0  0  0  0  0  0  0  0
   21.0778   72.3419    3.2807 H   0  0  0  0  0  0  0  0  0  0  0  0
   22.5890   73.2766    3.9336 H   0  0  0  0  0  0  0  0  0  0  0  0
   20.6280   70.5218    0.4713 H   0  0  0  0  0  0  0  0  0  0  0  0
   27.1630   71.5017    2.0688 O   0  0  0  0  0  0  0  0  0  0  0  0
   26.1045   72.1420    2.7571 C   0  0  0  0  0  0  0  0  0  0  0  0
   27.9659   71.5305    2.6130 H   0  0  0  0  0  0  0  0  0  0  0  0
 25 28  1  0
 25 24  1  0
 25 26  1  6
 25 27  2  0
  1  4  1  0
  1 24  1  0
  1  2  1  6
  1  3  2  0
  6 11  1  0
  6 12  1  0
 29 36  1  0
 29 37  1  0
  9  7  1  6
  7 13  1  0
 10  8  1  6
  8 14  1  0
 37 28  1  6
  4  5  1  0
 33 30  1  1
 30 38  1  0
 34 31  1  6
 31 39  1  0
 35 32  1  6
 32 40  1  0
 41 42  1  0
 41 43  1  0
 15 19  2  0
 16 22  2  0
 12 17  1  1
 17 19  1  0
 17 20  1  0
 18 19  1  0
 18 22  1  0
 18 23  1  0
  9 10  1  0
  9 11  1  0
 10 12  1  0
 11  5  1  1
 33 34  1  0
 33 35  1  0
 34 36  1  0
 35 37  1  0
 36 42  1  1
 20 21  2  0
 21 22  1  0
M  CHG  2   2  -1  26  -1
M  END
>  <COMPND>  (100) 
    8629 

>  <AUTHOR>  (100) 
    GENERATED BY OPEN BABEL 3.1.1

>  <MASTER>  (100) 
        0    0    0    0    0    0    0    0   58    0   58    0

>  <minimizedAffinity>  (100) 
-7.96000

>  <CNNscore>  (100) 
0.3802571595

>  <CNNaffinity>  (100) 
4.2457795143

>  <CNN_VS>  (100) 
1.6144880056

>  <CNNaffinity_variance>  (100) 
0.1508682668

$$$$
101
     RDKit          3D

 43 45  0  0  0  0  0  0  0  0999 V2000
   23.5853   71.6680   -2.7381 P   0  0  2  0  0  0  0  0  0  0  0  0
   23.4700   73.2314   -2.3382 O   0  0  0  0  0  0  0  0  0  0  0  0
   24.9653   71.2083   -3.1066 O   0  0  0  0  0  0  0  0  0  0  0  0
   22.4526   71.4738   -3.8770 O   0  0  0  0  0  0  0  0  0  0  0  0
   22.1414   72.5729   -4.7154 C   0  0  0  0  0  0  0  0  0  0  0  0
   20.9862   70.8274   -5.8954 O   0  0  0  0  0  0  0  0  0  0  0  0
   20.9122   72.7099   -8.2281 O   0  0  0  0  0  0  0  0  0  0  0  0
   18.3958   72.9360   -7.2018 O   0  0  0  0  0  0  0  0  0  0  0  0
   20.7985   72.9949   -6.8348 C   0  0  1  0  0  0  0  0  0  0  0  0
   19.4385   72.5711   -6.3207 C   0  0  2  0  0  0  0  0  0  0  0  0
   21.7303   72.0507   -6.0853 C   0  0  1  0  0  0  0  0  0  0  0  0
   19.6023   71.0655   -6.2003 C   0  0  2  0  0  0  0  0  0  0  0  0
   20.3263   73.3008   -8.7277 H   0  0  0  0  0  0  0  0  0  0  0  0
   18.3316   73.9029   -7.2442 H   0  0  0  0  0  0  0  0  0  0  0  0
   17.6454   69.0666   -6.5912 O   0  0  0  0  0  0  0  0  0  0  0  0
   16.5519   69.0041   -2.1144 O   0  0  0  0  0  0  0  0  0  0  0  0
   18.7918   70.5083   -5.1544 N   0  0  0  0  0  0  0  0  0  0  0  0
   17.1026   69.0370   -4.3617 N   0  0  0  0  0  0  0  0  0  0  0  0
   17.8371   69.5095   -5.4568 C   0  0  0  0  0  0  0  0  0  0  0  0
   18.9479   70.9522   -3.8458 C   0  0  0  0  0  0  0  0  0  0  0  0
   18.2387   70.4922   -2.8129 C   0  0  0  0  0  0  0  0  0  0  0  0
   17.2202   69.4473   -3.0432 C   0  0  0  0  0  0  0  0  0  0  0  0
   16.4314   68.3410   -4.5485 H   0  0  0  0  0  0  0  0  0  0  0  0
   22.9456   70.9171   -1.4576 O   0  0  0  0  0  0  0  0  0  0  0  0
   21.6274   71.2476   -0.5824 P   0  0  2  0  0  0  0  0  0  0  0  0
   20.9117   69.8047   -0.4301 O   0  0  0  0  0  0  0  0  0  0  0  0
   20.7502   72.3150   -1.1700 O   0  0  0  0  0  0  0  0  0  0  0  0
   22.1898   71.5815    0.8932 O   0  0  0  0  0  0  0  0  0  0  0  0
   22.0031   73.5904    2.1365 O   0  0  0  0  0  0  0  0  0  0  0  0
   25.7444   72.3797    3.3967 O   0  0  0  0  0  0  0  0  0  0  0  0
   23.5142   72.1981    5.1971 O   0  0  0  0  0  0  0  0  0  0  0  0
   24.9542   71.9922    0.6390 O   0  0  0  0  0  0  0  0  0  0  0  0
   24.3909   72.1987    2.9717 C   0  0  1  0  0  0  0  0  0  0  0  0
   23.4759   72.9155    3.9666 C   0  0  1  0  0  0  0  0  0  0  0  0
   24.2251   72.7841    1.5706 C   0  0  2  0  0  0  0  0  0  0  0  0
   22.0371   72.9942    3.4385 C   0  0  1  0  0  0  0  0  0  0  0  0
   22.7531   72.8628    1.1618 C   0  0  1  0  0  0  0  0  0  0  0  0
   25.8565   72.0097    4.2856 H   0  0  0  0  0  0  0  0  0  0  0  0
   24.4282   72.1552    5.5194 H   0  0  0  0  0  0  0  0  0  0  0  0
   25.8845   71.9504    0.9087 H   0  0  0  0  0  0  0  0  0  0  0  0
   21.4314   75.2071    4.1054 O   0  0  0  0  0  0  0  0  0  0  0  0
   21.1423   73.8413    4.3406 C   0  0  0  0  0  0  0  0  0  0  0  0
   20.8691   75.7583    4.6725 H   0  0  0  0  0  0  0  0  0  0  0  0
 25 28  1  0
 25 24  1  0
 25 26  1  1
 25 27  2  0
  1  4  1  0
  1 24  1  0
  1  2  1  1
  1  3  2  0
  6 11  1  0
  6 12  1  0
 29 36  1  0
 29 37  1  0
  9  7  1  6
  7 13  1  0
 10  8  1  6
  8 14  1  0
 37 28  1  1
  4  5  1  0
 33 30  1  1
 30 38  1  0
 34 31  1  1
 31 39  1  0
 35 32  1  6
 32 40  1  0
 41 42  1  0
 41 43  1  0
 15 19  2  0
 16 22  2  0
 12 17  1  1
 17 19  1  0
 17 20  1  0
 18 19  1  0
 18 22  1  0
 18 23  1  0
  9 10  1  0
  9 11  1  0
 10 12  1  0
 11  5  1  1
 33 34  1  0
 33 35  1  0
 34 36  1  0
 35 37  1  0
 36 42  1  1
 20 21  2  0
 21 22  1  0
M  CHG  2   2  -1  26  -1
M  END
>  <COMPND>  (101) 
    8629 

>  <AUTHOR>  (101) 
    GENERATED BY OPEN BABEL 3.1.1

>  <MASTER>  (101) 
        0    0    0    0    0    0    0    0   58    0   58    0

>  <minimizedAffinity>  (101) 
-6.89926

>  <CNNscore>  (101) 
0.7418586016

>  <CNNaffinity>  (101) 
4.3986692429

>  <CNN_VS>  (101) 
3.2631905079

>  <CNNaffinity_variance>  (101) 
0.1956113130

$$$$
102
     RDKit          3D

 43 45  0  0  0  0  0  0  0  0999 V2000
   23.6290   71.7108   -2.4206 P   0  0  2  0  0  0  0  0  0  0  0  0
   24.9409   70.8593   -2.8344 O   0  0  0  0  0  0  0  0  0  0  0  0
   23.3502   72.9054   -3.2847 O   0  0  0  0  0  0  0  0  0  0  0  0
   23.8454   72.0173   -0.8467 O   0  0  0  0  0  0  0  0  0  0  0  0
   24.4740   71.0315   -0.0461 C   0  0  0  0  0  0  0  0  0  0  0  0
   24.4923   70.7195    2.3364 O   0  0  0  0  0  0  0  0  0  0  0  0
   21.5613   71.3465    2.2530 O   0  0  0  0  0  0  0  0  0  0  0  0
   22.6488   73.6999    3.0989 O   0  0  0  0  0  0  0  0  0  0  0  0
   22.6234   71.8928    1.4726 C   0  0  1  0  0  0  0  0  0  0  0  0
   23.4511   72.8483    2.3066 C   0  0  2  0  0  0  0  0  0  0  0  0
   23.6189   70.7753    1.1873 C   0  0  1  0  0  0  0  0  0  0  0  0
   24.2902   71.8940    3.1393 C   0  0  2  0  0  0  0  0  0  0  0  0
   20.9126   72.0417    2.4475 H   0  0  0  0  0  0  0  0  0  0  0  0
   22.1344   74.2874    2.5235 H   0  0  0  0  0  0  0  0  0  0  0  0
   24.7389   73.6318    5.3202 O   0  0  0  0  0  0  0  0  0  0  0  0
   29.2368   73.9592    4.3701 O   0  0  0  0  0  0  0  0  0  0  0  0
   25.5687   72.4481    3.4852 N   0  0  0  0  0  0  0  0  0  0  0  0
   26.9782   73.7933    4.8454 N   0  0  0  0  0  0  0  0  0  0  0  0
   25.6862   73.3114    4.5993 C   0  0  0  0  0  0  0  0  0  0  0  0
   26.6891   72.1341    2.7236 C   0  0  0  0  0  0  0  0  0  0  0  0
   27.9139   72.6030    2.9707 C   0  0  0  0  0  0  0  0  0  0  0  0
   28.1228   73.5112    4.1168 C   0  0  0  0  0  0  0  0  0  0  0  0
   27.0840   74.3968    5.6164 H   0  0  0  0  0  0  0  0  0  0  0  0
   22.4586   70.5959   -2.4160 O   0  0  0  0  0  0  0  0  0  0  0  0
   20.9834   70.6081   -1.7551 P   0  0  2  0  0  0  0  0  0  0  0  0
   20.6932   72.1829   -1.5244 O   0  0  0  0  0  0  0  0  0  0  0  0
   20.8565   69.7673   -0.5178 O   0  0  0  0  0  0  0  0  0  0  0  0
   19.9937   70.1830   -2.9570 O   0  0  0  0  0  0  0  0  0  0  0  0
   18.5515   71.6988   -4.0702 O   0  0  0  0  0  0  0  0  0  0  0  0
   16.4263   68.2086   -4.6645 O   0  0  0  0  0  0  0  0  0  0  0  0
   17.8120   69.4180   -6.8702 O   0  0  0  0  0  0  0  0  0  0  0  0
   17.7772   68.6654   -2.1453 O   0  0  0  0  0  0  0  0  0  0  0  0
   17.6025   69.0098   -4.5228 C   0  0  1  0  0  0  0  0  0  0  0  0
   17.5942   70.0725   -5.6234 C   0  0  1  0  0  0  0  0  0  0  0  0
   17.5969   69.6649   -3.1428 C   0  0  2  0  0  0  0  0  0  0  0  0
   18.6780   71.1313   -5.3793 C   0  0  1  0  0  0  0  0  0  0  0  0
   18.6819   70.7365   -3.0219 C   0  0  1  0  0  0  0  0  0  0  0  0
   16.4239   67.7894   -5.5384 H   0  0  0  0  0  0  0  0  0  0  0  0
   17.1213   68.7517   -7.0119 H   0  0  0  0  0  0  0  0  0  0  0  0
   17.0840   67.9933   -2.2323 H   0  0  0  0  0  0  0  0  0  0  0  0
   19.4031   71.9808   -7.4915 O   0  0  0  0  0  0  0  0  0  0  0  0
   18.5857   72.2845   -6.3761 C   0  0  0  0  0  0  0  0  0  0  0  0
   19.3540   72.7059   -8.1345 H   0  0  0  0  0  0  0  0  0  0  0  0
 25 28  1  0
 25 24  1  0
 25 26  1  1
 25 27  2  0
  1  4  1  0
  1 24  1  0
  1  2  1  6
  1  3  2  0
  6 11  1  0
  6 12  1  0
 29 36  1  0
 29 37  1  0
  9  7  1  1
  7 13  1  0
 10  8  1  1
  8 14  1  0
 37 28  1  6
  4  5  1  0
 33 30  1  6
 30 38  1  0
 34 31  1  6
 31 39  1  0
 35 32  1  1
 32 40  1  0
 41 42  1  0
 41 43  1  0
 15 19  2  0
 16 22  2  0
 12 17  1  6
 17 19  1  0
 17 20  1  0
 18 19  1  0
 18 22  1  0
 18 23  1  0
  9 10  1  0
  9 11  1  0
 10 12  1  0
 11  5  1  6
 33 34  1  0
 33 35  1  0
 34 36  1  0
 35 37  1  0
 36 42  1  6
 20 21  2  0
 21 22  1  0
M  CHG  2   2  -1  26  -1
M  END
>  <COMPND>  (102) 
    8629 

>  <AUTHOR>  (102) 
    GENERATED BY OPEN BABEL 3.1.1

>  <MASTER>  (102) 
        0    0    0    0    0    0    0    0   58    0   58    0

>  <minimizedAffinity>  (102) 
-7.62438

>  <CNNscore>  (102) 
0.7152480483

>  <CNNaffinity>  (102) 
4.5005083084

>  <CNN_VS>  (102) 
3.2189798355

>  <CNNaffinity_variance>  (102) 
0.0439715534

$$$$
103
     RDKit          3D

 43 45  0  0  0  0  0  0  0  0999 V2000
   21.8938   70.5984   -0.3985 P   0  0  2  0  0  0  0  0  0  0  0  0
   21.4573   69.4386    0.6416 O   0  0  0  0  0  0  0  0  0  0  0  0
   21.5823   71.9975    0.0451 O   0  0  0  0  0  0  0  0  0  0  0  0
   21.2223   70.1388   -1.7970 O   0  0  0  0  0  0  0  0  0  0  0  0
   20.5808   71.1195   -2.5935 C   0  0  0  0  0  0  0  0  0  0  0  0
   21.6537   71.2285   -4.7408 O   0  0  0  0  0  0  0  0  0  0  0  0
   22.5279   73.9870   -3.9553 O   0  0  0  0  0  0  0  0  0  0  0  0
   20.4065   74.4805   -5.5963 O   0  0  0  0  0  0  0  0  0  0  0  0
   21.3061   73.3107   -3.6640 C   0  0  1  0  0  0  0  0  0  0  0  0
   20.4303   73.2521   -4.8982 C   0  0  2  0  0  0  0  0  0  0  0  0
   21.6278   71.8395   -3.4322 C   0  0  1  0  0  0  0  0  0  0  0  0
   21.0855   72.1383   -5.6970 C   0  0  2  0  0  0  0  0  0  0  0  0
   22.3479   74.9286   -4.1068 H   0  0  0  0  0  0  0  0  0  0  0  0
   19.9802   75.1566   -5.0468 H   0  0  0  0  0  0  0  0  0  0  0  0
   21.1734   72.0534   -8.5188 O   0  0  0  0  0  0  0  0  0  0  0  0
   17.4278   69.3768   -8.7376 O   0  0  0  0  0  0  0  0  0  0  0  0
   20.1460   71.4265   -6.5167 N   0  0  0  0  0  0  0  0  0  0  0  0
   19.3084   70.7206   -8.6254 N   0  0  0  0  0  0  0  0  0  0  0  0
   20.2786   71.4485   -7.9247 C   0  0  0  0  0  0  0  0  0  0  0  0
   19.1076   70.7164   -5.9238 C   0  0  0  0  0  0  0  0  0  0  0  0
   18.1899   70.0285   -6.6063 C   0  0  0  0  0  0  0  0  0  0  0  0
   18.2568   70.0002   -8.0817 C   0  0  0  0  0  0  0  0  0  0  0  0
   19.3805   70.7219   -9.6076 H   0  0  0  0  0  0  0  0  0  0  0  0
   23.4651   70.3018   -0.6351 O   0  0  0  0  0  0  0  0  0  0  0  0
   24.7680   71.2280   -0.3954 P   0  0  2  0  0  0  0  0  0  0  0  0
   24.6064   72.3911   -1.5083 O   0  0  0  0  0  0  0  0  0  0  0  0
   26.0712   70.4854   -0.4605 O   0  0  0  0  0  0  0  0  0  0  0  0
   24.4897   71.9684    1.0115 O   0  0  0  0  0  0  0  0  0  0  0  0
   26.1049   71.4421    2.6639 O   0  0  0  0  0  0  0  0  0  0  0  0
   23.3120   73.3296    5.0488 O   0  0  0  0  0  0  0  0  0  0  0  0
   25.7851   74.6566    4.4398 O   0  0  0  0  0  0  0  0  0  0  0  0
   22.4407   71.6041    2.8941 O   0  0  0  0  0  0  0  0  0  0  0  0
   24.0643   73.1020    3.8540 C   0  0  1  0  0  0  0  0  0  0  0  0
   25.5487   73.2754    4.1816 C   0  0  1  0  0  0  0  0  0  0  0  0
   23.7864   71.6867    3.3510 C   0  0  2  0  0  0  0  0  0  0  0  0
   26.4318   72.7893    3.0244 C   0  0  1  0  0  0  0  0  0  0  0  0
   24.7513   71.2845    2.2342 C   0  0  1  0  0  0  0  0  0  0  0  0
   23.4836   74.2267    5.3731 H   0  0  0  0  0  0  0  0  0  0  0  0
   25.2210   74.9510    5.1721 H   0  0  0  0  0  0  0  0  0  0  0  0
   21.8398   71.8608    3.6102 H   0  0  0  0  0  0  0  0  0  0  0  0
   28.0290   72.7964    4.8014 O   0  0  0  0  0  0  0  0  0  0  0  0
   27.9143   72.8060    3.3903 C   0  0  0  0  0  0  0  0  0  0  0  0
   28.9673   72.8065    5.0490 H   0  0  0  0  0  0  0  0  0  0  0  0
 25 28  1  0
 25 24  1  0
 25 26  1  6
 25 27  2  0
  1  4  1  0
  1 24  1  0
  1  2  1  1
  1  3  2  0
  6 11  1  0
  6 12  1  0
 29 36  1  0
 29 37  1  0
  9  7  1  6
  7 13  1  0
 10  8  1  6
  8 14  1  0
 37 28  1  6
  4  5  1  0
 33 30  1  1
 30 38  1  0
 34 31  1  6
 31 39  1  0
 35 32  1  6
 32 40  1  0
 41 42  1  0
 41 43  1  0
 15 19  2  0
 16 22  2  0
 12 17  1  1
 17 19  1  0
 17 20  1  0
 18 19  1  0
 18 22  1  0
 18 23  1  0
  9 10  1  0
  9 11  1  0
 10 12  1  0
 11  5  1  1
 33 34  1  0
 33 35  1  0
 34 36  1  0
 35 37  1  0
 36 42  1  1
 20 21  2  0
 21 22  1  0
M  CHG  2   2  -1  26  -1
M  END
>  <COMPND>  (103) 
    8629 

>  <AUTHOR>  (103) 
    GENERATED BY OPEN BABEL 3.1.1

>  <MASTER>  (103) 
        0    0    0    0    0    0    0    0   58    0   58    0

>  <minimizedAffinity>  (103) 
-6.92513

>  <CNNscore>  (103) 
0.6785910130

>  <CNNaffinity>  (103) 
4.2821922302

>  <CNN_VS>  (103) 
2.9058570862

>  <CNNaffinity_variance>  (103) 
0.0301231351

$$$$
104
     RDKit          3D

 43 45  0  0  0  0  0  0  0  0999 V2000
   20.4968   72.8855   -1.6645 P   0  0  2  0  0  0  0  0  0  0  0  0
   20.1481   71.5064   -0.8937 O   0  0  0  0  0  0  0  0  0  0  0  0
   19.7707   74.0964   -1.1567 O   0  0  0  0  0  0  0  0  0  0  0  0
   20.2617   72.5283   -3.2250 O   0  0  0  0  0  0  0  0  0  0  0  0
   20.9182   73.3139   -4.2047 C   0  0  0  0  0  0  0  0  0  0  0  0
   21.2345   71.2162   -5.3332 O   0  0  0  0  0  0  0  0  0  0  0  0
   23.6479   72.4719   -6.5939 O   0  0  0  0  0  0  0  0  0  0  0  0
   21.7857   72.6388   -8.5790 O   0  0  0  0  0  0  0  0  0  0  0  0
   22.3923   73.0630   -6.2631 C   0  0  1  0  0  0  0  0  0  0  0  0
   21.3269   72.6169   -7.2427 C   0  0  2  0  0  0  0  0  0  0  0  0
   21.9083   72.4383   -4.9605 C   0  0  1  0  0  0  0  0  0  0  0  0
   21.0175   71.2122   -6.7536 C   0  0  2  0  0  0  0  0  0  0  0  0
   23.9774   72.8554   -7.4224 H   0  0  0  0  0  0  0  0  0  0  0  0
   21.9687   73.5539   -8.8433 H   0  0  0  0  0  0  0  0  0  0  0  0
   20.0199   70.5231   -9.3047 O   0  0  0  0  0  0  0  0  0  0  0  0
   15.7899   69.7534   -7.6447 O   0  0  0  0  0  0  0  0  0  0  0  0
   19.6595   70.8274   -7.0168 N   0  0  0  0  0  0  0  0  0  0  0  0
   17.9146   70.1402   -8.4760 N   0  0  0  0  0  0  0  0  0  0  0  0
   19.2604   70.5016   -8.3340 C   0  0  0  0  0  0  0  0  0  0  0  0
   18.7397   70.7756   -5.9751 C   0  0  0  0  0  0  0  0  0  0  0  0
   17.4595   70.4302   -6.1274 C   0  0  0  0  0  0  0  0  0  0  0  0
   16.9615   70.0750   -7.4720 C   0  0  0  0  0  0  0  0  0  0  0  0
   17.6138   69.9095   -9.3849 H   0  0  0  0  0  0  0  0  0  0  0  0
   22.1070   72.9691   -1.5495 O   0  0  0  0  0  0  0  0  0  0  0  0
   23.2026   71.8483   -1.1538 P   0  0  2  0  0  0  0  0  0  0  0  0
   24.6119   72.5943   -1.4272 O   0  0  0  0  0  0  0  0  0  0  0  0
   23.0403   70.5452   -1.8815 O   0  0  0  0  0  0  0  0  0  0  0  0
   23.1073   71.7333    0.4533 O   0  0  0  0  0  0  0  0  0  0  0  0
   23.3583   73.8882    1.4072 O   0  0  0  0  0  0  0  0  0  0  0  0
   23.3167   71.6355    4.8676 O   0  0  0  0  0  0  0  0  0  0  0  0
   21.0412   73.2571    4.2039 O   0  0  0  0  0  0  0  0  0  0  0  0
   24.6691   70.6372    2.5110 O   0  0  0  0  0  0  0  0  0  0  0  0
   22.9441   71.9747    3.5291 C   0  0  1  0  0  0  0  0  0  0  0  0
   22.3014   73.3630    3.5474 C   0  0  1  0  0  0  0  0  0  0  0  0
   24.1916   71.9713    2.6476 C   0  0  2  0  0  0  0  0  0  0  0  0
   22.1186   73.9076    2.1244 C   0  0  1  0  0  0  0  0  0  0  0  0
   23.9124   72.5781    1.2714 C   0  0  1  0  0  0  0  0  0  0  0  0
   22.5290   71.6354    5.4325 H   0  0  0  0  0  0  0  0  0  0  0  0
   21.1707   72.9117    5.1012 H   0  0  0  0  0  0  0  0  0  0  0  0
   24.8424   70.2644    3.3889 H   0  0  0  0  0  0  0  0  0  0  0  0
   20.6312   75.4884    1.1256 O   0  0  0  0  0  0  0  0  0  0  0  0
   21.6256   75.3530    2.1241 C   0  0  0  0  0  0  0  0  0  0  0  0
   20.3079   76.4033    1.1141 H   0  0  0  0  0  0  0  0  0  0  0  0
 25 28  1  0
 25 24  1  0
 25 26  1  1
 25 27  2  0
  1  4  1  0
  1 24  1  0
  1  2  1  1
  1  3  2  0
  6 11  1  0
  6 12  1  0
 29 36  1  0
 29 37  1  0
  9  7  1  6
  7 13  1  0
 10  8  1  6
  8 14  1  0
 37 28  1  1
  4  5  1  0
 33 30  1  1
 30 38  1  0
 34 31  1  6
 31 39  1  0
 35 32  1  6
 32 40  1  0
 41 42  1  0
 41 43  1  0
 15 19  2  0
 16 22  2  0
 12 17  1  1
 17 19  1  0
 17 20  1  0
 18 19  1  0
 18 22  1  0
 18 23  1  0
  9 10  1  0
  9 11  1  0
 10 12  1  0
 11  5  1  6
 33 34  1  0
 33 35  1  0
 34 36  1  0
 35 37  1  0
 36 42  1  1
 20 21  2  0
 21 22  1  0
M  CHG  2   2  -1  26  -1
M  END
>  <COMPND>  (104) 
    8629 

>  <AUTHOR>  (104) 
    GENERATED BY OPEN BABEL 3.1.1

>  <MASTER>  (104) 
        0    0    0    0    0    0    0    0   58    0   58    0

>  <minimizedAffinity>  (104) 
-6.62039

>  <CNNscore>  (104) 
0.6655470133

>  <CNNaffinity>  (104) 
4.3153614998

>  <CNN_VS>  (104) 
2.8720760345

>  <CNNaffinity_variance>  (104) 
0.0219824724

$$$$
105
     RDKit          3D

 43 45  0  0  0  0  0  0  0  0999 V2000
   24.0690   71.7050   -2.6364 P   0  0  2  0  0  0  0  0  0  0  0  0
   25.4108   70.8192   -2.8165 O   0  0  0  0  0  0  0  0  0  0  0  0
   23.8828   72.7882   -3.6578 O   0  0  0  0  0  0  0  0  0  0  0  0
   24.1310   72.1951   -1.0957 O   0  0  0  0  0  0  0  0  0  0  0  0
   24.8351   71.3971   -0.1601 C   0  0  0  0  0  0  0  0  0  0  0  0
   24.4611   70.7005    2.1089 O   0  0  0  0  0  0  0  0  0  0  0  0
   21.5384   70.7335    1.4398 O   0  0  0  0  0  0  0  0  0  0  0  0
   21.8660   73.0811    2.7880 O   0  0  0  0  0  0  0  0  0  0  0  0
   22.5763   71.6040    0.9922 C   0  0  1  0  0  0  0  0  0  0  0  0
   22.9820   72.5522    2.1012 C   0  0  2  0  0  0  0  0  0  0  0  0
   23.8392   70.7721    0.8071 C   0  0  1  0  0  0  0  0  0  0  0  0
   23.8405   71.6593    2.9809 C   0  0  2  0  0  0  0  0  0  0  0  0
   20.7214   71.2422    1.5647 H   0  0  0  0  0  0  0  0  0  0  0  0
   21.3518   73.6417    2.1863 H   0  0  0  0  0  0  0  0  0  0  0  0
   23.5021   72.8762    5.5072 O   0  0  0  0  0  0  0  0  0  0  0  0
   27.8353   74.4458    5.5355 O   0  0  0  0  0  0  0  0  0  0  0  0
   24.8637   72.3920    3.6719 N   0  0  0  0  0  0  0  0  0  0  0  0
   25.6600   73.6566    5.5193 N   0  0  0  0  0  0  0  0  0  0  0  0
   24.5908   72.9649    4.9359 C   0  0  0  0  0  0  0  0  0  0  0  0
   26.1214   72.5362    3.0964 C   0  0  0  0  0  0  0  0  0  0  0  0
   27.1299   73.2000    3.6652 C   0  0  0  0  0  0  0  0  0  0  0  0
   26.9278   73.8287    4.9865 C   0  0  0  0  0  0  0  0  0  0  0  0
   25.4930   74.0645    6.4000 H   0  0  0  0  0  0  0  0  0  0  0  0
   22.8980   70.5908   -2.6163 O   0  0  0  0  0  0  0  0  0  0  0  0
   21.3087   70.7258   -2.3539 P   0  0  2  0  0  0  0  0  0  0  0  0
   21.1389   72.2662   -1.8892 O   0  0  0  0  0  0  0  0  0  0  0  0
   20.7579   69.7218   -1.3830 O   0  0  0  0  0  0  0  0  0  0  0  0
   20.6455   70.6681   -3.8242 O   0  0  0  0  0  0  0  0  0  0  0  0
   20.9417   72.6039   -5.1589 O   0  0  0  0  0  0  0  0  0  0  0  0
   17.9200   70.7805   -7.3025 O   0  0  0  0  0  0  0  0  0  0  0  0
   20.5873   70.8217   -8.3663 O   0  0  0  0  0  0  0  0  0  0  0  0
   17.9010   70.6809   -4.4096 O   0  0  0  0  0  0  0  0  0  0  0  0
   19.0988   70.8272   -6.4941 C   0  0  1  0  0  0  0  0  0  0  0  0
   20.1711   71.6098   -7.2545 C   0  0  1  0  0  0  0  0  0  0  0  0
   18.7692   71.5141   -5.1701 C   0  0  2  0  0  0  0  0  0  0  0  0
   21.3682   71.9317   -6.3498 C   0  0  1  0  0  0  0  0  0  0  0  0
   20.0330   71.8337   -4.3697 C   0  0  1  0  0  0  0  0  0  0  0  0
   18.1223   70.3450   -8.1445 H   0  0  0  0  0  0  0  0  0  0  0  0
   19.8221   70.6251   -8.9293 H   0  0  0  0  0  0  0  0  0  0  0  0
   17.1047   70.4861   -4.9270 H   0  0  0  0  0  0  0  0  0  0  0  0
   23.6687   72.5478   -6.5417 O   0  0  0  0  0  0  0  0  0  0  0  0
   22.3778   72.8457   -7.0407 C   0  0  0  0  0  0  0  0  0  0  0  0
   24.3218   73.1217   -6.9728 H   0  0  0  0  0  0  0  0  0  0  0  0
 25 28  1  0
 25 24  1  0
 25 26  1  1
 25 27  2  0
  1  4  1  0
  1 24  1  0
  1  2  1  6
  1  3  2  0
  6 11  1  0
  6 12  1  0
 29 36  1  0
 29 37  1  0
  9  7  1  1
  7 13  1  0
 10  8  1  1
  8 14  1  0
 37 28  1  6
  4  5  1  0
 33 30  1  6
 30 38  1  0
 34 31  1  6
 31 39  1  0
 35 32  1  1
 32 40  1  0
 41 42  1  0
 41 43  1  0
 15 19  2  0
 16 22  2  0
 12 17  1  6
 17 19  1  0
 17 20  1  0
 18 19  1  0
 18 22  1  0
 18 23  1  0
  9 10  1  0
  9 11  1  0
 10 12  1  0
 11  5  1  6
 33 34  1  0
 33 35  1  0
 34 36  1  0
 35 37  1  0
 36 42  1  6
 20 21  2  0
 21 22  1  0
M  CHG  2   2  -1  26  -1
M  END
>  <COMPND>  (105) 
    8629 

>  <AUTHOR>  (105) 
    GENERATED BY OPEN BABEL 3.1.1

>  <MASTER>  (105) 
        0    0    0    0    0    0    0    0   58    0   58    0

>  <minimizedAffinity>  (105) 
-7.36784

>  <CNNscore>  (105) 
0.6596789360

>  <CNNaffinity>  (105) 
4.4312505722

>  <CNN_VS>  (105) 
2.9232027531

>  <CNNaffinity_variance>  (105) 
0.1103611812

$$$$
106
     RDKit          3D

 43 45  0  0  0  0  0  0  0  0999 V2000
   18.7968   73.5013   -2.2546 P   0  0  2  0  0  0  0  0  0  0  0  0
   18.0165   74.8949   -2.5121 O   0  0  0  0  0  0  0  0  0  0  0  0
   18.2486   72.6653   -1.1356 O   0  0  0  0  0  0  0  0  0  0  0  0
   20.3457   73.9449   -2.1065 O   0  0  0  0  0  0  0  0  0  0  0  0
   21.0426   73.5838   -0.9267 C   0  0  0  0  0  0  0  0  0  0  0  0
   23.1359   72.5894   -0.2919 O   0  0  0  0  0  0  0  0  0  0  0  0
   22.3326   70.2590   -1.9992 O   0  0  0  0  0  0  0  0  0  0  0  0
   21.7702   69.3735    0.5180 O   0  0  0  0  0  0  0  0  0  0  0  0
   21.5217   71.0977   -1.1781 C   0  0  1  0  0  0  0  0  0  0  0  0
   21.7350   70.7667    0.2843 C   0  0  2  0  0  0  0  0  0  0  0  0
   22.0727   72.5154   -1.2669 C   0  0  1  0  0  0  0  0  0  0  0  0
   23.0663   71.4410    0.5691 C   0  0  2  0  0  0  0  0  0  0  0  0
   21.9999   69.3482   -1.9589 H   0  0  0  0  0  0  0  0  0  0  0  0
   20.9007   68.9907    0.3227 H   0  0  0  0  0  0  0  0  0  0  0  0
   20.8703   71.9332    2.2760 O   0  0  0  0  0  0  0  0  0  0  0  0
   23.6232   73.0984    5.7837 O   0  0  0  0  0  0  0  0  0  0  0  0
   23.1803   71.8736    1.9334 N   0  0  0  0  0  0  0  0  0  0  0  0
   22.2428   72.5128    4.0212 N   0  0  0  0  0  0  0  0  0  0  0  0
   22.0150   72.0933    2.7044 C   0  0  0  0  0  0  0  0  0  0  0  0
   24.4370   72.0751    2.4938 C   0  0  0  0  0  0  0  0  0  0  0  0
   24.6371   72.4766    3.7507 C   0  0  0  0  0  0  0  0  0  0  0  0
   23.4722   72.7284    4.6235 C   0  0  0  0  0  0  0  0  0  0  0  0
   21.4457   72.6725    4.5770 H   0  0  0  0  0  0  0  0  0  0  0  0
   18.7597   72.7904   -3.7059 O   0  0  0  0  0  0  0  0  0  0  0  0
   19.8277   72.7980   -4.9193 P   0  0  2  0  0  0  0  0  0  0  0  0
   20.9631   71.7588   -4.4207 O   0  0  0  0  0  0  0  0  0  0  0  0
   20.3481   74.1612   -5.2725 O   0  0  0  0  0  0  0  0  0  0  0  0
   19.0785   72.0343   -6.1277 O   0  0  0  0  0  0  0  0  0  0  0  0
   18.2632   69.9231   -5.4242 O   0  0  0  0  0  0  0  0  0  0  0  0
   17.5560   69.5858   -9.4784 O   0  0  0  0  0  0  0  0  0  0  0  0
   15.3476   69.9534   -7.6796 O   0  0  0  0  0  0  0  0  0  0  0  0
   19.9598   70.8947   -8.5360 O   0  0  0  0  0  0  0  0  0  0  0  0
   17.6549   70.2681   -8.2254 C   0  0  1  0  0  0  0  0  0  0  0  0
   16.6662   69.6260   -7.2503 C   0  0  1  0  0  0  0  0  0  0  0  0
   19.0843   70.1443   -7.7011 C   0  0  2  0  0  0  0  0  0  0  0  0
   16.9002   70.1221   -5.8171 C   0  0  1  0  0  0  0  0  0  0  0  0
   19.1974   70.6194   -6.2515 C   0  0  1  0  0  0  0  0  0  0  0  0
   16.6509   69.6611   -9.8170 H   0  0  0  0  0  0  0  0  0  0  0  0
   15.2129   69.6351   -8.5861 H   0  0  0  0  0  0  0  0  0  0  0  0
   19.8791   70.5842   -9.4508 H   0  0  0  0  0  0  0  0  0  0  0  0
   16.7571   68.2620   -4.3242 O   0  0  0  0  0  0  0  0  0  0  0  0
   16.0312   69.3783   -4.8053 C   0  0  0  0  0  0  0  0  0  0  0  0
   16.2164   67.7792   -3.6790 H   0  0  0  0  0  0  0  0  0  0  0  0
 25 28  1  0
 25 24  1  0
 25 26  1  1
 25 27  2  0
  1  4  1  0
  1 24  1  0
  1  2  1  6
  1  3  2  0
  6 11  1  0
  6 12  1  0
 29 36  1  0
 29 37  1  0
  9  7  1  6
  7 13  1  0
 10  8  1  6
  8 14  1  0
 37 28  1  6
  4  5  1  0
 33 30  1  6
 30 38  1  0
 34 31  1  6
 31 39  1  0
 35 32  1  6
 32 40  1  0
 41 42  1  0
 41 43  1  0
 15 19  2  0
 16 22  2  0
 12 17  1  1
 17 19  1  0
 17 20  1  0
 18 19  1  0
 18 22  1  0
 18 23  1  0
  9 10  1  0
  9 11  1  0
 10 12  1  0
 11  5  1  1
 33 34  1  0
 33 35  1  0
 34 36  1  0
 35 37  1  0
 36 42  1  1
 20 21  2  0
 21 22  1  0
M  CHG  2   2  -1  26  -1
M  END
>  <COMPND>  (106) 
    8629 

>  <AUTHOR>  (106) 
    GENERATED BY OPEN BABEL 3.1.1

>  <MASTER>  (106) 
        0    0    0    0    0    0    0    0   58    0   58    0

>  <minimizedAffinity>  (106) 
-7.42344

>  <CNNscore>  (106) 
0.6590870023

>  <CNNaffinity>  (106) 
4.3964452744

>  <CNN_VS>  (106) 
2.8976399899

>  <CNNaffinity_variance>  (106) 
0.2141011953

$$$$
107
     RDKit          3D

 43 45  0  0  0  0  0  0  0  0999 V2000
   21.5073   70.7835   -0.2693 P   0  0  2  0  0  0  0  0  0  0  0  0
   21.7147   69.4181    0.5732 O   0  0  0  0  0  0  0  0  0  0  0  0
   22.7629   71.3706   -0.8439 O   0  0  0  0  0  0  0  0  0  0  0  0
   20.6817   71.7413    0.7402 O   0  0  0  0  0  0  0  0  0  0  0  0
   21.3398   72.8677    1.2933 C   0  0  0  0  0  0  0  0  0  0  0  0
   22.0760   72.5901    3.5637 O   0  0  0  0  0  0  0  0  0  0  0  0
   19.7992   74.3869    4.3243 O   0  0  0  0  0  0  0  0  0  0  0  0
   21.9408   76.0729    4.4092 O   0  0  0  0  0  0  0  0  0  0  0  0
   20.6393   74.4336    3.1722 C   0  0  1  0  0  0  0  0  0  0  0  0
   22.0106   74.9591    3.5424 C   0  0  2  0  0  0  0  0  0  0  0  0
   20.9489   73.0002    2.7588 C   0  0  1  0  0  0  0  0  0  0  0  0
   22.6461   73.7457    4.1996 C   0  0  2  0  0  0  0  0  0  0  0  0
   19.5876   75.2909    4.6068 H   0  0  0  0  0  0  0  0  0  0  0  0
   21.5293   76.8186    3.9451 H   0  0  0  0  0  0  0  0  0  0  0  0
   24.4784   73.0364    6.2288 O   0  0  0  0  0  0  0  0  0  0  0  0
   28.0926   73.6651    3.4389 O   0  0  0  0  0  0  0  0  0  0  0  0
   24.0716   73.7151    4.0309 N   0  0  0  0  0  0  0  0  0  0  0  0
   26.2765   73.3498    4.8379 N   0  0  0  0  0  0  0  0  0  0  0  0
   24.9032   73.3459    5.1137 C   0  0  0  0  0  0  0  0  0  0  0  0
   24.6312   74.0485    2.8022 C   0  0  0  0  0  0  0  0  0  0  0  0
   25.9429   74.0485    2.5559 C   0  0  0  0  0  0  0  0  0  0  0  0
   26.8811   73.6747    3.6339 C   0  0  0  0  0  0  0  0  0  0  0  0
   26.8753   73.0963    5.5775 H   0  0  0  0  0  0  0  0  0  0  0  0
   20.3954   70.3681   -1.3667 O   0  0  0  0  0  0  0  0  0  0  0  0
   19.2587   71.2444   -2.1104 P   0  0  2  0  0  0  0  0  0  0  0  0
   20.0928   72.4839   -2.7313 O   0  0  0  0  0  0  0  0  0  0  0  0
   18.1159   71.6488   -1.2248 O   0  0  0  0  0  0  0  0  0  0  0  0
   18.8321   70.3584   -3.3902 O   0  0  0  0  0  0  0  0  0  0  0  0
   18.0038   71.1903   -5.4490 O   0  0  0  0  0  0  0  0  0  0  0  0
   16.0667   67.5442   -5.3834 O   0  0  0  0  0  0  0  0  0  0  0  0
   18.2474   67.9586   -7.2056 O   0  0  0  0  0  0  0  0  0  0  0  0
   16.3914   69.0510   -2.9332 O   0  0  0  0  0  0  0  0  0  0  0  0
   17.1457   68.4509   -5.1405 C   0  0  1  0  0  0  0  0  0  0  0  0
   17.6129   69.0115   -6.4852 C   0  0  1  0  0  0  0  0  0  0  0  0
   16.6572   69.5755   -4.2296 C   0  0  2  0  0  0  0  0  0  0  0  0
   18.5823   70.1849   -6.2894 C   0  0  1  0  0  0  0  0  0  0  0  0
   17.6750   70.7142   -4.1424 C   0  0  1  0  0  0  0  0  0  0  0  0
   16.3704   66.8273   -5.9608 H   0  0  0  0  0  0  0  0  0  0  0  0
   17.6248   67.2238   -7.3220 H   0  0  0  0  0  0  0  0  0  0  0  0
   15.7456   68.3313   -3.0019 H   0  0  0  0  0  0  0  0  0  0  0  0
   17.8704   70.6591   -8.5204 O   0  0  0  0  0  0  0  0  0  0  0  0
   18.9379   70.8599   -7.6123 C   0  0  0  0  0  0  0  0  0  0  0  0
   18.0826   71.0836   -9.3669 H   0  0  0  0  0  0  0  0  0  0  0  0
 25 28  1  0
 25 24  1  0
 25 26  1  6
 25 27  2  0
  1  4  1  0
  1 24  1  0
  1  2  1  1
  1  3  2  0
  6 11  1  0
  6 12  1  0
 29 36  1  0
 29 37  1  0
  9  7  1  1
  7 13  1  0
 10  8  1  1
  8 14  1  0
 37 28  1  6
  4  5  1  0
 33 30  1  6
 30 38  1  0
 34 31  1  1
 31 39  1  0
 35 32  1  1
 32 40  1  0
 41 42  1  0
 41 43  1  0
 15 19  2  0
 16 22  2  0
 12 17  1  6
 17 19  1  0
 17 20  1  0
 18 19  1  0
 18 22  1  0
 18 23  1  0
  9 10  1  0
  9 11  1  0
 10 12  1  0
 11  5  1  6
 33 34  1  0
 33 35  1  0
 34 36  1  0
 35 37  1  0
 36 42  1  6
 20 21  2  0
 21 22  1  0
M  CHG  2   2  -1  26  -1
M  END
>  <COMPND>  (107) 
    8629 

>  <AUTHOR>  (107) 
    GENERATED BY OPEN BABEL 3.1.1

>  <MASTER>  (107) 
        0    0    0    0    0    0    0    0   58    0   58    0

>  <minimizedAffinity>  (107) 
-6.67407

>  <CNNscore>  (107) 
0.5563184023

>  <CNNaffinity>  (107) 
4.2147026062

>  <CNN_VS>  (107) 
2.3447165489

>  <CNNaffinity_variance>  (107) 
0.2122298777

$$$$
108
     RDKit          3D

 43 45  0  0  0  0  0  0  0  0999 V2000
   21.5503   70.6628   -2.1810 P   0  0  2  0  0  0  0  0  0  0  0  0
   22.5962   69.9131   -3.1616 O   0  0  0  0  0  0  0  0  0  0  0  0
   21.0245   69.8230   -1.0542 O   0  0  0  0  0  0  0  0  0  0  0  0
   20.4362   71.2642   -3.1884 O   0  0  0  0  0  0  0  0  0  0  0  0
   20.8577   72.1471   -4.2134 C   0  0  0  0  0  0  0  0  0  0  0  0
   19.5189   70.5065   -5.3491 O   0  0  0  0  0  0  0  0  0  0  0  0
   20.0538   72.0736   -7.8489 O   0  0  0  0  0  0  0  0  0  0  0  0
   17.5342   72.8704   -7.1755 O   0  0  0  0  0  0  0  0  0  0  0  0
   19.8513   72.5418   -6.5166 C   0  0  1  0  0  0  0  0  0  0  0  0
   18.3888   72.4345   -6.1381 C   0  0  2  0  0  0  0  0  0  0  0  0
   20.5001   71.5442   -5.5650 C   0  0  1  0  0  0  0  0  0  0  0  0
   18.2464   70.9500   -5.8482 C   0  0  2  0  0  0  0  0  0  0  0  0
   19.6483   72.6947   -8.4748 H   0  0  0  0  0  0  0  0  0  0  0  0
   17.6620   73.8206   -7.3222 H   0  0  0  0  0  0  0  0  0  0  0  0
   16.6787   68.6017   -5.7732 O   0  0  0  0  0  0  0  0  0  0  0  0
   14.4088   70.0176   -2.0204 O   0  0  0  0  0  0  0  0  0  0  0  0
   17.2386   70.6787   -4.8623 N   0  0  0  0  0  0  0  0  0  0  0  0
   15.5498   69.3086   -3.9045 N   0  0  0  0  0  0  0  0  0  0  0  0
   16.5068   69.4695   -4.9147 C   0  0  0  0  0  0  0  0  0  0  0  0
   16.9846   71.6060   -3.8576 C   0  0  0  0  0  0  0  0  0  0  0  0
   16.0677   71.4380   -2.9024 C   0  0  0  0  0  0  0  0  0  0  0  0
   15.2596   70.2016   -2.8852 C   0  0  0  0  0  0  0  0  0  0  0  0
   15.0276   68.4739   -3.9211 H   0  0  0  0  0  0  0  0  0  0  0  0
   22.3671   71.9778   -1.7156 O   0  0  0  0  0  0  0  0  0  0  0  0
   23.7947   72.1334   -0.9736 P   0  0  2  0  0  0  0  0  0  0  0  0
   24.4619   73.4067   -1.7160 O   0  0  0  0  0  0  0  0  0  0  0  0
   24.6383   70.8917   -0.9957 O   0  0  0  0  0  0  0  0  0  0  0  0
   23.4305   72.6684    0.5049 O   0  0  0  0  0  0  0  0  0  0  0  0
   24.4848   72.0115    2.5232 O   0  0  0  0  0  0  0  0  0  0  0  0
   20.7126   72.8355    3.9871 O   0  0  0  0  0  0  0  0  0  0  0  0
   22.8821   74.6246    4.5707 O   0  0  0  0  0  0  0  0  0  0  0  0
   21.0131   71.5630    1.4045 O   0  0  0  0  0  0  0  0  0  0  0  0
   21.8477   73.0148    3.1357 C   0  0  1  0  0  0  0  0  0  0  0  0
   23.0615   73.3254    4.0137 C   0  0  1  0  0  0  0  0  0  0  0  0
   22.0774   71.7349    2.3340 C   0  0  2  0  0  0  0  0  0  0  0  0
   24.3622   73.2672    3.2014 C   0  0  1  0  0  0  0  0  0  0  0  0
   23.4209   71.7599    1.6030 C   0  0  1  0  0  0  0  0  0  0  0  0
   20.5610   73.6448    4.4986 H   0  0  0  0  0  0  0  0  0  0  0  0
   22.0571   74.6480    5.0806 H   0  0  0  0  0  0  0  0  0  0  0  0
   20.1681   71.5485    1.8796 H   0  0  0  0  0  0  0  0  0  0  0  0
   25.2016   73.2686    5.4384 O   0  0  0  0  0  0  0  0  0  0  0  0
   25.5970   73.4181    4.0872 C   0  0  0  0  0  0  0  0  0  0  0  0
   25.9774   73.3620    6.0139 H   0  0  0  0  0  0  0  0  0  0  0  0
 25 28  1  0
 25 24  1  0
 25 26  1  6
 25 27  2  0
  1  4  1  0
  1 24  1  0
  1  2  1  6
  1  3  2  0
  6 11  1  0
  6 12  1  0
 29 36  1  0
 29 37  1  0
  9  7  1  6
  7 13  1  0
 10  8  1  6
  8 14  1  0
 37 28  1  6
  4  5  1  0
 33 30  1  1
 30 38  1  0
 34 31  1  6
 31 39  1  0
 35 32  1  6
 32 40  1  0
 41 42  1  0
 41 43  1  0
 15 19  2  0
 16 22  2  0
 12 17  1  1
 17 19  1  0
 17 20  1  0
 18 19  1  0
 18 22  1  0
 18 23  1  0
  9 10  1  0
  9 11  1  0
 10 12  1  0
 11  5  1  1
 33 34  1  0
 33 35  1  0
 34 36  1  0
 35 37  1  0
 36 42  1  1
 20 21  2  0
 21 22  1  0
M  CHG  2   2  -1  26  -1
M  END
>  <COMPND>  (108) 
    8629 

>  <AUTHOR>  (108) 
    GENERATED BY OPEN BABEL 3.1.1

>  <MASTER>  (108) 
        0    0    0    0    0    0    0    0   58    0   58    0

>  <minimizedAffinity>  (108) 
-6.51087

>  <CNNscore>  (108) 
0.5537818074

>  <CNNaffinity>  (108) 
4.2612543106

>  <CNN_VS>  (108) 
2.3598051071

>  <CNNaffinity_variance>  (108) 
0.0498162694

$$$$
109
     RDKit          3D

 43 45  0  0  0  0  0  0  0  0999 V2000
   17.0837   69.6236   -3.1911 P   0  0  2  0  0  0  0  0  0  0  0  0
   17.6192   68.5705   -2.0858 O   0  0  0  0  0  0  0  0  0  0  0  0
   15.8192   70.3421   -2.8217 O   0  0  0  0  0  0  0  0  0  0  0  0
   17.0266   68.7579   -4.5568 O   0  0  0  0  0  0  0  0  0  0  0  0
   15.8514   68.8172   -5.3463 C   0  0  0  0  0  0  0  0  0  0  0  0
   15.1091   70.1061   -7.2334 O   0  0  0  0  0  0  0  0  0  0  0  0
   17.9901   70.2103   -8.0580 O   0  0  0  0  0  0  0  0  0  0  0  0
   17.6075   72.6605   -6.9236 O   0  0  0  0  0  0  0  0  0  0  0  0
   17.4247   70.2424   -6.7486 C   0  0  1  0  0  0  0  0  0  0  0  0
   16.7942   71.5931   -6.4810 C   0  0  2  0  0  0  0  0  0  0  0  0
   16.2135   69.3181   -6.7377 C   0  0  1  0  0  0  0  0  0  0  0  0
   15.4909   71.4912   -7.2550 C   0  0  2  0  0  0  0  0  0  0  0  0
   18.7657   70.7929   -8.0895 H   0  0  0  0  0  0  0  0  0  0  0  0
   18.4241   72.6832   -6.4007 H   0  0  0  0  0  0  0  0  0  0  0  0
   13.7130   73.1326   -8.7121 O   0  0  0  0  0  0  0  0  0  0  0  0
   11.5034   74.4482   -4.8874 O   0  0  0  0  0  0  0  0  0  0  0  0
   14.4412   72.2735   -6.6654 N   0  0  0  0  0  0  0  0  0  0  0  0
   12.6141   73.7862   -6.8065 N   0  0  0  0  0  0  0  0  0  0  0  0
   13.6041   73.0649   -7.4860 C   0  0  0  0  0  0  0  0  0  0  0  0
   14.2499   72.2506   -5.2882 C   0  0  0  0  0  0  0  0  0  0  0  0
   13.3020   72.9453   -4.6556 C   0  0  0  0  0  0  0  0  0  0  0  0
   12.3850   73.7974   -5.4398 C   0  0  0  0  0  0  0  0  0  0  0  0
   12.0193   74.3449   -7.3577 H   0  0  0  0  0  0  0  0  0  0  0  0
   18.3609   70.5865   -3.4245 O   0  0  0  0  0  0  0  0  0  0  0  0
   18.6854   72.0715   -2.8744 P   0  0  2  0  0  0  0  0  0  0  0  0
   17.9127   72.1180   -1.4537 O   0  0  0  0  0  0  0  0  0  0  0  0
   18.3083   73.1743   -3.8208 O   0  0  0  0  0  0  0  0  0  0  0  0
   20.2513   72.0300   -2.4856 O   0  0  0  0  0  0  0  0  0  0  0  0
   22.2972   71.0676   -3.1960 O   0  0  0  0  0  0  0  0  0  0  0  0
   22.2502   69.7132    0.7045 O   0  0  0  0  0  0  0  0  0  0  0  0
   24.0833   71.7902   -0.0533 O   0  0  0  0  0  0  0  0  0  0  0  0
   19.7893   69.8224   -0.8158 O   0  0  0  0  0  0  0  0  0  0  0  0
   22.0067   70.6423   -0.3552 C   0  0  1  0  0  0  0  0  0  0  0  0
   23.3496   71.0073   -0.9909 C   0  0  1  0  0  0  0  0  0  0  0  0
   21.0829   69.9943   -1.3847 C   0  0  2  0  0  0  0  0  0  0  0  0
   23.1501   71.7868   -2.2977 C   0  0  1  0  0  0  0  0  0  0  0  0
   20.9927   70.8261   -2.6653 C   0  0  1  0  0  0  0  0  0  0  0  0
   22.8358   70.1187    1.3619 H   0  0  0  0  0  0  0  0  0  0  0  0
   24.2019   71.2867    0.7675 H   0  0  0  0  0  0  0  0  0  0  0  0
   19.8599   69.2940   -0.0061 H   0  0  0  0  0  0  0  0  0  0  0  0
   25.3259   70.9248   -2.7794 O   0  0  0  0  0  0  0  0  0  0  0  0
   24.4695   72.0242   -3.0291 C   0  0  0  0  0  0  0  0  0  0  0  0
   26.1695   71.0619   -3.2390 H   0  0  0  0  0  0  0  0  0  0  0  0
 25 28  1  0
 25 24  1  0
 25 26  1  1
 25 27  2  0
  1  4  1  0
  1 24  1  0
  1  2  1  1
  1  3  2  0
  6 11  1  0
  6 12  1  0
 29 36  1  0
 29 37  1  0
  9  7  1  6
  7 13  1  0
 10  8  1  6
  8 14  1  0
 37 28  1  1
  4  5  1  0
 33 30  1  1
 30 38  1  0
 34 31  1  1
 31 39  1  0
 35 32  1  1
 32 40  1  0
 41 42  1  0
 41 43  1  0
 15 19  2  0
 16 22  2  0
 12 17  1  1
 17 19  1  0
 17 20  1  0
 18 19  1  0
 18 22  1  0
 18 23  1  0
  9 10  1  0
  9 11  1  0
 10 12  1  0
 11  5  1  1
 33 34  1  0
 33 35  1  0
 34 36  1  0
 35 37  1  0
 36 42  1  6
 20 21  2  0
 21 22  1  0
M  CHG  2   2  -1  26  -1
M  END
>  <COMPND>  (109) 
    8629 

>  <AUTHOR>  (109) 
    GENERATED BY OPEN BABEL 3.1.1

>  <MASTER>  (109) 
        0    0    0    0    0    0    0    0   58    0   58    0

>  <minimizedAffinity>  (109) 
-7.20836

>  <CNNscore>  (109) 
0.5176170468

>  <CNNaffinity>  (109) 
4.2277655602

>  <CNN_VS>  (109) 
2.1883635521

>  <CNNaffinity_variance>  (109) 
0.2035020292

$$$$
110
     RDKit          3D

 43 45  0  0  0  0  0  0  0  0999 V2000
   18.3433   69.9875   -2.6478 P   0  0  2  0  0  0  0  0  0  0  0  0
   17.9376   68.4373   -2.4251 O   0  0  0  0  0  0  0  0  0  0  0  0
   17.6127   70.9655   -1.7753 O   0  0  0  0  0  0  0  0  0  0  0  0
   18.1767   70.2075   -4.2421 O   0  0  0  0  0  0  0  0  0  0  0  0
   17.4325   69.2553   -4.9818 C   0  0  0  0  0  0  0  0  0  0  0  0
   16.1004   70.0904   -6.7990 O   0  0  0  0  0  0  0  0  0  0  0  0
   18.6937   70.7859   -8.1339 O   0  0  0  0  0  0  0  0  0  0  0  0
   17.8719   73.1898   -7.1428 O   0  0  0  0  0  0  0  0  0  0  0  0
   18.3486   70.8382   -6.7506 C   0  0  1  0  0  0  0  0  0  0  0  0
   17.4400   72.0191   -6.4796 C   0  0  2  0  0  0  0  0  0  0  0  0
   17.4336   69.6575   -6.4503 C   0  0  1  0  0  0  0  0  0  0  0  0
   16.1037   71.5137   -6.9963 C   0  0  2  0  0  0  0  0  0  0  0  0
   19.2782   71.5301   -8.3494 H   0  0  0  0  0  0  0  0  0  0  0  0
   18.7256   73.4715   -6.7787 H   0  0  0  0  0  0  0  0  0  0  0  0
   13.8718   72.7177   -8.2400 O   0  0  0  0  0  0  0  0  0  0  0  0
   11.8979   73.6734   -4.1864 O   0  0  0  0  0  0  0  0  0  0  0  0
   14.9919   72.0850   -6.2901 N   0  0  0  0  0  0  0  0  0  0  0  0
   12.8907   73.1925   -6.2206 N   0  0  0  0  0  0  0  0  0  0  0  0
   13.9216   72.6661   -7.0093 C   0  0  0  0  0  0  0  0  0  0  0  0
   14.9700   72.0652   -4.8998 C   0  0  0  0  0  0  0  0  0  0  0  0
   13.9800   72.5725   -4.1624 C   0  0  0  0  0  0  0  0  0  0  0  0
   12.8238   73.1980   -4.8363 C   0  0  0  0  0  0  0  0  0  0  0  0
   12.1346   73.6028   -6.6999 H   0  0  0  0  0  0  0  0  0  0  0  0
   19.9474   69.9757   -2.4483 O   0  0  0  0  0  0  0  0  0  0  0  0
   21.0894   70.9941   -2.9693 P   0  0  2  0  0  0  0  0  0  0  0  0
   20.4687   72.4503   -2.6348 O   0  0  0  0  0  0  0  0  0  0  0  0
   21.4764   70.8013   -4.4070 O   0  0  0  0  0  0  0  0  0  0  0  0
   22.3034   70.8178   -1.9205 O   0  0  0  0  0  0  0  0  0  0  0  0
   22.6401   72.5433   -0.3311 O   0  0  0  0  0  0  0  0  0  0  0  0
   26.3266   70.6983   -0.0930 O   0  0  0  0  0  0  0  0  0  0  0  0
   24.4524   70.4051    2.0632 O   0  0  0  0  0  0  0  0  0  0  0  0
   25.0076   70.9637   -2.6561 O   0  0  0  0  0  0  0  0  0  0  0  0
   24.9073   70.7571   -0.2585 C   0  0  1  0  0  0  0  0  0  0  0  0
   24.3007   71.3553    1.0123 C   0  0  1  0  0  0  0  0  0  0  0  0
   24.5816   71.6273   -1.4709 C   0  0  2  0  0  0  0  0  0  0  0  0
   22.8182   71.6970    0.8108 C   0  0  1  0  0  0  0  0  0  0  0  0
   23.0882   71.9486   -1.5508 C   0  0  1  0  0  0  0  0  0  0  0  0
   26.5402   70.1469    0.6749 H   0  0  0  0  0  0  0  0  0  0  0  0
   25.3929   70.1976    2.1798 H   0  0  0  0  0  0  0  0  0  0  0  0
   25.9546   70.7660   -2.5933 H   0  0  0  0  0  0  0  0  0  0  0  0
   23.2972   73.0297    2.7352 O   0  0  0  0  0  0  0  0  0  0  0  0
   22.2339   72.4387    2.0110 C   0  0  0  0  0  0  0  0  0  0  0  0
   22.9403   73.5054    3.5020 H   0  0  0  0  0  0  0  0  0  0  0  0
 25 28  1  0
 25 24  1  0
 25 26  1  6
 25 27  2  0
  1  4  1  0
  1 24  1  0
  1  2  1  1
  1  3  2  0
  6 11  1  0
  6 12  1  0
 29 36  1  0
 29 37  1  0
  9  7  1  6
  7 13  1  0
 10  8  1  6
  8 14  1  0
 37 28  1  1
  4  5  1  0
 33 30  1  1
 30 38  1  0
 34 31  1  1
 31 39  1  0
 35 32  1  6
 32 40  1  0
 41 42  1  0
 41 43  1  0
 15 19  2  0
 16 22  2  0
 12 17  1  1
 17 19  1  0
 17 20  1  0
 18 19  1  0
 18 22  1  0
 18 23  1  0
  9 10  1  0
  9 11  1  0
 10 12  1  0
 11  5  1  1
 33 34  1  0
 33 35  1  0
 34 36  1  0
 35 37  1  0
 36 42  1  1
 20 21  2  0
 21 22  1  0
M  CHG  2   2  -1  26  -1
M  END
>  <COMPND>  (110) 
    8629 

>  <AUTHOR>  (110) 
    GENERATED BY OPEN BABEL 3.1.1

>  <MASTER>  (110) 
        0    0    0    0    0    0    0    0   58    0   58    0

>  <minimizedAffinity>  (110) 
-7.05360

>  <CNNscore>  (110) 
0.5076947212

>  <CNNaffinity>  (110) 
4.2709469795

>  <CNN_VS>  (110) 
2.1683373451

>  <CNNaffinity_variance>  (110) 
0.0420609824

$$$$
111
     RDKit          3D

 43 45  0  0  0  0  0  0  0  0999 V2000
   19.3603   72.5841   -1.7092 P   0  0  2  0  0  0  0  0  0  0  0  0
   19.9654   72.6630   -3.2075 O   0  0  0  0  0  0  0  0  0  0  0  0
   18.6639   73.8278   -1.2406 O   0  0  0  0  0  0  0  0  0  0  0  0
   20.6143   72.0994   -0.8089 O   0  0  0  0  0  0  0  0  0  0  0  0
   21.4799   73.0832   -0.2699 C   0  0  0  0  0  0  0  0  0  0  0  0
   23.7829   73.2531    0.3946 O   0  0  0  0  0  0  0  0  0  0  0  0
   24.3093   71.0170   -1.5324 O   0  0  0  0  0  0  0  0  0  0  0  0
   24.2750   69.7329    0.8731 O   0  0  0  0  0  0  0  0  0  0  0  0
   23.1777   71.2358   -0.6917 C   0  0  1  0  0  0  0  0  0  0  0  0
   23.5249   70.9240    0.7491 C   0  0  2  0  0  0  0  0  0  0  0  0
   22.9158   72.7358   -0.6384 C   0  0  1  0  0  0  0  0  0  0  0  0
   24.3137   72.1568    1.1569 C   0  0  2  0  0  0  0  0  0  0  0  0
   24.4958   70.0658   -1.5823 H   0  0  0  0  0  0  0  0  0  0  0  0
   23.7300   68.9778    0.6021 H   0  0  0  0  0  0  0  0  0  0  0  0
   22.0054   71.6148    2.6918 O   0  0  0  0  0  0  0  0  0  0  0  0
   23.9179   73.3411    6.5132 O   0  0  0  0  0  0  0  0  0  0  0  0
   24.1813   72.4539    2.5553 N   0  0  0  0  0  0  0  0  0  0  0  0
   22.9596   72.4746    4.5933 N   0  0  0  0  0  0  0  0  0  0  0  0
   22.9794   72.1423    3.2328 C   0  0  0  0  0  0  0  0  0  0  0  0
   25.2359   73.0472    3.2406 C   0  0  0  0  0  0  0  0  0  0  0  0
   25.2006   73.3590    4.5379 C   0  0  0  0  0  0  0  0  0  0  0  0
   23.9814   73.0664    5.3189 C   0  0  0  0  0  0  0  0  0  0  0  0
   22.1324   72.2671    5.0857 H   0  0  0  0  0  0  0  0  0  0  0  0
   18.4228   71.2684   -1.7647 O   0  0  0  0  0  0  0  0  0  0  0  0
   18.6559   69.8273   -2.4589 P   0  0  2  0  0  0  0  0  0  0  0  0
   17.6089   68.8682   -1.6835 O   0  0  0  0  0  0  0  0  0  0  0  0
   20.0786   69.3492   -2.4215 O   0  0  0  0  0  0  0  0  0  0  0  0
   18.0421   69.9849   -3.9433 O   0  0  0  0  0  0  0  0  0  0  0  0
   17.1536   72.0389   -4.7232 O   0  0  0  0  0  0  0  0  0  0  0  0
   15.0930   69.4488   -7.1923 O   0  0  0  0  0  0  0  0  0  0  0  0
   17.2044   71.0647   -8.2781 O   0  0  0  0  0  0  0  0  0  0  0  0
   15.5791   68.7312   -4.4303 O   0  0  0  0  0  0  0  0  0  0  0  0
   16.2132   69.9105   -6.4324 C   0  0  1  0  0  0  0  0  0  0  0  0
   16.6401   71.2714   -6.9861 C   0  0  1  0  0  0  0  0  0  0  0  0
   15.8057   70.0309   -4.9652 C   0  0  2  0  0  0  0  0  0  0  0  0
   17.6583   71.9512   -6.0608 C   0  0  1  0  0  0  0  0  0  0  0  0
   16.8662   70.7652   -4.1428 C   0  0  1  0  0  0  0  0  0  0  0  0
   15.3452   69.3697   -8.1248 H   0  0  0  0  0  0  0  0  0  0  0  0
   16.5515   70.6343   -8.8523 H   0  0  0  0  0  0  0  0  0  0  0  0
   14.9057   68.2769   -4.9594 H   0  0  0  0  0  0  0  0  0  0  0  0
   18.9465   73.9172   -5.6313 O   0  0  0  0  0  0  0  0  0  0  0  0
   17.9787   73.3749   -6.5109 C   0  0  0  0  0  0  0  0  0  0  0  0
   19.1604   74.8231   -5.9058 H   0  0  0  0  0  0  0  0  0  0  0  0
 25 28  1  0
 25 24  1  0
 25 26  1  1
 25 27  2  0
  1  4  1  0
  1 24  1  0
  1  2  1  6
  1  3  2  0
  6 11  1  0
  6 12  1  0
 29 36  1  0
 29 37  1  0
  9  7  1  6
  7 13  1  0
 10  8  1  6
  8 14  1  0
 37 28  1  6
  4  5  1  0
 33 30  1  6
 30 38  1  0
 34 31  1  6
 31 39  1  0
 35 32  1  1
 32 40  1  0
 41 42  1  0
 41 43  1  0
 15 19  2  0
 16 22  2  0
 12 17  1  1
 17 19  1  0
 17 20  1  0
 18 19  1  0
 18 22  1  0
 18 23  1  0
  9 10  1  0
  9 11  1  0
 10 12  1  0
 11  5  1  1
 33 34  1  0
 33 35  1  0
 34 36  1  0
 35 37  1  0
 36 42  1  6
 20 21  2  0
 21 22  1  0
M  CHG  2   2  -1  26  -1
M  END
>  <COMPND>  (111) 
    8629 

>  <AUTHOR>  (111) 
    GENERATED BY OPEN BABEL 3.1.1

>  <MASTER>  (111) 
        0    0    0    0    0    0    0    0   58    0   58    0

>  <minimizedAffinity>  (111) 
-7.18339

>  <CNNscore>  (111) 
0.5007649660

>  <CNNaffinity>  (111) 
4.1641225815

>  <CNN_VS>  (111) 
2.0852468014

>  <CNNaffinity_variance>  (111) 
0.3967241645

$$$$
112
     RDKit          3D

 43 45  0  0  0  0  0  0  0  0999 V2000
   18.2402   72.2144   -2.2985 P   0  0  2  0  0  0  0  0  0  0  0  0
   17.1639   72.7372   -3.3873 O   0  0  0  0  0  0  0  0  0  0  0  0
   17.8266   70.9904   -1.5356 O   0  0  0  0  0  0  0  0  0  0  0  0
   18.5569   73.5256   -1.4049 O   0  0  0  0  0  0  0  0  0  0  0  0
   19.8055   73.6050   -0.7397 C   0  0  0  0  0  0  0  0  0  0  0  0
   20.4414   71.9829    0.9150 O   0  0  0  0  0  0  0  0  0  0  0  0
   19.4340   73.9405    2.9506 O   0  0  0  0  0  0  0  0  0  0  0  0
   22.1341   74.3072    3.0587 O   0  0  0  0  0  0  0  0  0  0  0  0
   20.1091   74.1874    1.7183 C   0  0  1  0  0  0  0  0  0  0  0  0
   21.5783   73.8426    1.8454 C   0  0  2  0  0  0  0  0  0  0  0  0
   19.6271   73.1572    0.7046 C   0  0  1  0  0  0  0  0  0  0  0  0
   21.5549   72.3261    1.7559 C   0  0  2  0  0  0  0  0  0  0  0  0
   19.7253   74.5865    3.6138 H   0  0  0  0  0  0  0  0  0  0  0  0
   22.1266   75.2770    3.0675 H   0  0  0  0  0  0  0  0  0  0  0  0
   23.8280   71.5466    3.2403 O   0  0  0  0  0  0  0  0  0  0  0  0
   26.1094   70.2951   -0.5635 O   0  0  0  0  0  0  0  0  0  0  0  0
   22.7567   71.7929    1.1791 N   0  0  0  0  0  0  0  0  0  0  0  0
   24.9620   70.9239    1.3451 N   0  0  0  0  0  0  0  0  0  0  0  0
   23.8411   71.4333    2.0129 C   0  0  0  0  0  0  0  0  0  0  0  0
   22.8513   71.6310   -0.1988 C   0  0  0  0  0  0  0  0  0  0  0  0
   23.9278   71.1450   -0.8202 C   0  0  0  0  0  0  0  0  0  0  0  0
   25.1046   70.7452   -0.0218 C   0  0  0  0  0  0  0  0  0  0  0  0
   25.7299   70.6670    1.9056 H   0  0  0  0  0  0  0  0  0  0  0  0
   19.5872   72.0379   -3.1746 O   0  0  0  0  0  0  0  0  0  0  0  0
   20.0139   72.6628   -4.6030 P   0  0  2  0  0  0  0  0  0  0  0  0
   21.4640   72.0007   -4.8794 O   0  0  0  0  0  0  0  0  0  0  0  0
   19.9997   74.1634   -4.6472 O   0  0  0  0  0  0  0  0  0  0  0  0
   19.0318   71.9529   -5.6692 O   0  0  0  0  0  0  0  0  0  0  0  0
   18.2913   69.7248   -5.3472 O   0  0  0  0  0  0  0  0  0  0  0  0
   17.7861   70.0037   -9.4360 O   0  0  0  0  0  0  0  0  0  0  0  0
   15.4829   69.9893   -7.7204 O   0  0  0  0  0  0  0  0  0  0  0  0
   20.0768   71.2466   -8.1760 O   0  0  0  0  0  0  0  0  0  0  0  0
   17.7942   70.4827   -8.0884 C   0  0  1  0  0  0  0  0  0  0  0  0
   16.7954   69.6536   -7.2787 C   0  0  1  0  0  0  0  0  0  0  0  0
   19.2028   70.3375   -7.5155 C   0  0  2  0  0  0  0  0  0  0  0  0
   16.9393   69.9262   -5.7754 C   0  0  1  0  0  0  0  0  0  0  0  0
   19.2263   70.5817   -6.0056 C   0  0  1  0  0  0  0  0  0  0  0  0
   16.8946   70.0935   -9.8058 H   0  0  0  0  0  0  0  0  0  0  0  0
   15.4055   69.8130   -8.6712 H   0  0  0  0  0  0  0  0  0  0  0  0
   20.0531   71.0816   -9.1310 H   0  0  0  0  0  0  0  0  0  0  0  0
   16.5323   69.0175   -3.6034 O   0  0  0  0  0  0  0  0  0  0  0  0
   16.0634   68.9959   -4.9390 C   0  0  0  0  0  0  0  0  0  0  0  0
   15.9839   68.4301   -3.0593 H   0  0  0  0  0  0  0  0  0  0  0  0
 25 28  1  0
 25 24  1  0
 25 26  1  6
 25 27  2  0
  1  4  1  0
  1 24  1  0
  1  2  1  6
  1  3  2  0
  6 11  1  0
  6 12  1  0
 29 36  1  0
 29 37  1  0
  9  7  1  1
  7 13  1  0
 10  8  1  1
  8 14  1  0
 37 28  1  6
  4  5  1  0
 33 30  1  6
 30 38  1  0
 34 31  1  6
 31 39  1  0
 35 32  1  6
 32 40  1  0
 41 42  1  0
 41 43  1  0
 15 19  2  0
 16 22  2  0
 12 17  1  6
 17 19  1  0
 17 20  1  0
 18 19  1  0
 18 22  1  0
 18 23  1  0
  9 10  1  0
  9 11  1  0
 10 12  1  0
 11  5  1  6
 33 34  1  0
 33 35  1  0
 34 36  1  0
 35 37  1  0
 36 42  1  1
 20 21  2  0
 21 22  1  0
M  CHG  2   2  -1  26  -1
M  END
>  <COMPND>  (112) 
    8629 

>  <AUTHOR>  (112) 
    GENERATED BY OPEN BABEL 3.1.1

>  <MASTER>  (112) 
        0    0    0    0    0    0    0    0   58    0   58    0

>  <minimizedAffinity>  (112) 
-6.74762

>  <CNNscore>  (112) 
0.4756124318

>  <CNNaffinity>  (112) 
4.2239823341

>  <CNN_VS>  (112) 
2.0089786053

>  <CNNaffinity_variance>  (112) 
0.2859072387

$$$$
113
     RDKit          3D

 43 45  0  0  0  0  0  0  0  0999 V2000
   21.4987   70.3806   -0.5831 P   0  0  2  0  0  0  0  0  0  0  0  0
   21.6863   69.3526    0.6520 O   0  0  0  0  0  0  0  0  0  0  0  0
   22.7025   70.5382   -1.4649 O   0  0  0  0  0  0  0  0  0  0  0  0
   20.9588   71.7353    0.1176 O   0  0  0  0  0  0  0  0  0  0  0  0
   21.8495   72.4753    0.9343 C   0  0  0  0  0  0  0  0  0  0  0  0
   22.6328   71.6923    3.0666 O   0  0  0  0  0  0  0  0  0  0  0  0
   20.3365   73.2089    4.2572 O   0  0  0  0  0  0  0  0  0  0  0  0
   22.4465   74.8773    4.7049 O   0  0  0  0  0  0  0  0  0  0  0  0
   21.1540   73.5426    3.1367 C   0  0  1  0  0  0  0  0  0  0  0  0
   22.5216   73.9986    3.6008 C   0  0  2  0  0  0  0  0  0  0  0  0
   21.4833   72.2529    2.3953 C   0  0  1  0  0  0  0  0  0  0  0  0
   23.1924   72.6802    3.9474 C   0  0  2  0  0  0  0  0  0  0  0  0
   20.1128   74.0169    4.7461 H   0  0  0  0  0  0  0  0  0  0  0  0
   22.0122   75.7010    4.4337 H   0  0  0  0  0  0  0  0  0  0  0  0
   25.0224   73.7391    5.8203 O   0  0  0  0  0  0  0  0  0  0  0  0
   28.6269   72.7919    3.1090 O   0  0  0  0  0  0  0  0  0  0  0  0
   24.6148   72.7227    3.7569 N   0  0  0  0  0  0  0  0  0  0  0  0
   26.8157   73.2665    4.4688 N   0  0  0  0  0  0  0  0  0  0  0  0
   25.4453   73.2765    4.7589 C   0  0  0  0  0  0  0  0  0  0  0  0
   25.1726   72.2187    2.5870 C   0  0  0  0  0  0  0  0  0  0  0  0
   26.4813   72.2178    2.3251 C   0  0  0  0  0  0  0  0  0  0  0  0
   27.4182   72.7782    3.3202 C   0  0  0  0  0  0  0  0  0  0  0  0
   27.4136   73.6475    5.1522 H   0  0  0  0  0  0  0  0  0  0  0  0
   20.1850   69.8113   -1.3335 O   0  0  0  0  0  0  0  0  0  0  0  0
   19.3320   70.4003   -2.5738 P   0  0  2  0  0  0  0  0  0  0  0  0
   18.5873   71.6864   -1.9345 O   0  0  0  0  0  0  0  0  0  0  0  0
   18.4084   69.4044   -3.2135 O   0  0  0  0  0  0  0  0  0  0  0  0
   20.4379   71.0234   -3.5708 O   0  0  0  0  0  0  0  0  0  0  0  0
   21.6572   73.0497   -3.4158 O   0  0  0  0  0  0  0  0  0  0  0  0
   21.1101   72.9200   -7.5066 O   0  0  0  0  0  0  0  0  0  0  0  0
   23.7117   72.4005   -6.4068 O   0  0  0  0  0  0  0  0  0  0  0  0
   18.9865   72.0590   -5.7378 O   0  0  0  0  0  0  0  0  0  0  0  0
   21.3287   72.3732   -6.2033 C   0  0  1  0  0  0  0  0  0  0  0  0
   22.6345   72.9508   -5.6538 C   0  0  1  0  0  0  0  0  0  0  0  0
   20.1538   72.7471   -5.3016 C   0  0  2  0  0  0  0  0  0  0  0  0
   22.8017   72.6228   -4.1639 C   0  0  1  0  0  0  0  0  0  0  0  0
   20.4426   72.4240   -3.8345 C   0  0  1  0  0  0  0  0  0  0  0  0
   21.8523   72.6858   -8.0843 H   0  0  0  0  0  0  0  0  0  0  0  0
   23.5939   72.6143   -7.3457 H   0  0  0  0  0  0  0  0  0  0  0  0
   18.8143   72.2721   -6.6678 H   0  0  0  0  0  0  0  0  0  0  0  0
   24.5274   74.2395   -4.5062 O   0  0  0  0  0  0  0  0  0  0  0  0
   24.0168   73.3211   -3.5574 C   0  0  0  0  0  0  0  0  0  0  0  0
   25.3011   74.6917   -4.1338 H   0  0  0  0  0  0  0  0  0  0  0  0
 25 28  1  0
 25 24  1  0
 25 26  1  1
 25 27  2  0
  1  4  1  0
  1 24  1  0
  1  2  1  1
  1  3  2  0
  6 11  1  0
  6 12  1  0
 29 36  1  0
 29 37  1  0
  9  7  1  1
  7 13  1  0
 10  8  1  1
  8 14  1  0
 37 28  1  6
  4  5  1  0
 33 30  1  6
 30 38  1  0
 34 31  1  6
 31 39  1  0
 35 32  1  6
 32 40  1  0
 41 42  1  0
 41 43  1  0
 15 19  2  0
 16 22  2  0
 12 17  1  6
 17 19  1  0
 17 20  1  0
 18 19  1  0
 18 22  1  0
 18 23  1  0
  9 10  1  0
  9 11  1  0
 10 12  1  0
 11  5  1  6
 33 34  1  0
 33 35  1  0
 34 36  1  0
 35 37  1  0
 36 42  1  1
 20 21  2  0
 21 22  1  0
M  CHG  2   2  -1  26  -1
M  END
>  <COMPND>  (113) 
    8629 

>  <AUTHOR>  (113) 
    GENERATED BY OPEN BABEL 3.1.1

>  <MASTER>  (113) 
        0    0    0    0    0    0    0    0   58    0   58    0

>  <minimizedAffinity>  (113) 
-6.68643

>  <CNNscore>  (113) 
0.4513846338

>  <CNNaffinity>  (113) 
4.0061388016

>  <CNN_VS>  (113) 
1.8083095551

>  <CNNaffinity_variance>  (113) 
0.2209889889

$$$$
114
     RDKit          3D

 43 45  0  0  0  0  0  0  0  0999 V2000
   19.0022   73.6126   -1.0665 P   0  0  2  0  0  0  0  0  0  0  0  0
   20.2623   74.6067   -1.2691 O   0  0  0  0  0  0  0  0  0  0  0  0
   17.6706   74.1923   -1.4436 O   0  0  0  0  0  0  0  0  0  0  0  0
   19.1429   73.1144    0.4664 O   0  0  0  0  0  0  0  0  0  0  0  0
   19.9921   73.8404    1.3380 C   0  0  0  0  0  0  0  0  0  0  0  0
   21.1676   71.7893    1.7679 O   0  0  0  0  0  0  0  0  0  0  0  0
   21.5842   72.8294    4.5492 O   0  0  0  0  0  0  0  0  0  0  0  0
   23.9892   73.3247    3.3629 O   0  0  0  0  0  0  0  0  0  0  0  0
   21.5680   73.5410    3.3128 C   0  0  1  0  0  0  0  0  0  0  0  0
   22.8427   73.2784    2.5383 C   0  0  2  0  0  0  0  0  0  0  0  0
   20.5142   72.9018    2.4172 C   0  0  1  0  0  0  0  0  0  0  0  0
   22.5865   71.8928    1.9705 C   0  0  2  0  0  0  0  0  0  0  0  0
   22.2496   73.2197    5.1381 H   0  0  0  0  0  0  0  0  0  0  0  0
   24.1094   74.2264    3.6995 H   0  0  0  0  0  0  0  0  0  0  0  0
   25.1971   70.8474    1.7061 O   0  0  0  0  0  0  0  0  0  0  0  0
   25.0430   71.1328   -2.8913 O   0  0  0  0  0  0  0  0  0  0  0  0
   23.2531   71.6830    0.7163 N   0  0  0  0  0  0  0  0  0  0  0  0
   25.1182   70.9902   -0.5829 N   0  0  0  0  0  0  0  0  0  0  0  0
   24.5645   71.1537    0.6933 C   0  0  0  0  0  0  0  0  0  0  0  0
   22.6070   72.0006   -0.4735 C   0  0  0  0  0  0  0  0  0  0  0  0
   23.1494   71.8400   -1.6823 C   0  0  0  0  0  0  0  0  0  0  0  0
   24.5167   71.2923   -1.7944 C   0  0  0  0  0  0  0  0  0  0  0  0
   26.0312   70.6233   -0.6235 H   0  0  0  0  0  0  0  0  0  0  0  0
   19.4310   72.3048   -1.9143 O   0  0  0  0  0  0  0  0  0  0  0  0
   18.9490   70.7656   -1.8078 P   0  0  2  0  0  0  0  0  0  0  0  0
   17.4293   70.8892   -1.2666 O   0  0  0  0  0  0  0  0  0  0  0  0
   19.8384   69.8993   -0.9637 O   0  0  0  0  0  0  0  0  0  0  0  0
   18.7980   70.2778   -3.3389 O   0  0  0  0  0  0  0  0  0  0  0  0
   17.9910   71.1678   -5.3817 O   0  0  0  0  0  0  0  0  0  0  0  0
   16.0435   67.5270   -5.4332 O   0  0  0  0  0  0  0  0  0  0  0  0
   18.2422   67.9844   -7.2233 O   0  0  0  0  0  0  0  0  0  0  0  0
   16.3497   68.9657   -2.9400 O   0  0  0  0  0  0  0  0  0  0  0  0
   17.1227   68.4236   -5.1558 C   0  0  1  0  0  0  0  0  0  0  0  0
   17.6038   69.0192   -6.4804 C   0  0  1  0  0  0  0  0  0  0  0  0
   16.6288   69.5246   -4.2191 C   0  0  2  0  0  0  0  0  0  0  0  0
   18.5746   70.1840   -6.2439 C   0  0  1  0  0  0  0  0  0  0  0  0
   17.6489   70.6574   -4.0917 C   0  0  1  0  0  0  0  0  0  0  0  0
   16.3506   66.8252   -6.0271 H   0  0  0  0  0  0  0  0  0  0  0  0
   17.6186   67.2549   -7.3654 H   0  0  0  0  0  0  0  0  0  0  0  0
   15.7025   68.2500   -3.0342 H   0  0  0  0  0  0  0  0  0  0  0  0
   17.8463   70.8027   -8.4338 O   0  0  0  0  0  0  0  0  0  0  0  0
   18.9442   70.8936   -7.5446 C   0  0  0  0  0  0  0  0  0  0  0  0
   18.0670   71.2503   -9.2660 H   0  0  0  0  0  0  0  0  0  0  0  0
 25 28  1  0
 25 24  1  0
 25 26  1  1
 25 27  2  0
  1  4  1  0
  1 24  1  0
  1  2  1  1
  1  3  2  0
  6 11  1  0
  6 12  1  0
 29 36  1  0
 29 37  1  0
  9  7  1  1
  7 13  1  0
 10  8  1  1
  8 14  1  0
 37 28  1  6
  4  5  1  0
 33 30  1  6
 30 38  1  0
 34 31  1  6
 31 39  1  0
 35 32  1  1
 32 40  1  0
 41 42  1  0
 41 43  1  0
 15 19  2  0
 16 22  2  0
 12 17  1  6
 17 19  1  0
 17 20  1  0
 18 19  1  0
 18 22  1  0
 18 23  1  0
  9 10  1  0
  9 11  1  0
 10 12  1  0
 11  5  1  6
 33 34  1  0
 33 35  1  0
 34 36  1  0
 35 37  1  0
 36 42  1  6
 20 21  2  0
 21 22  1  0
M  CHG  2   2  -1  26  -1
M  END
>  <COMPND>  (114) 
    8629 

>  <AUTHOR>  (114) 
    GENERATED BY OPEN BABEL 3.1.1

>  <MASTER>  (114) 
        0    0    0    0    0    0    0    0   58    0   58    0

>  <minimizedAffinity>  (114) 
-7.14748

>  <CNNscore>  (114) 
0.4306966364

>  <CNNaffinity>  (114) 
3.9137878418

>  <CNN_VS>  (114) 
1.6856552362

>  <CNNaffinity_variance>  (114) 
0.6265872717

$$$$
115
     RDKit          3D

 43 45  0  0  0  0  0  0  0  0999 V2000
   19.6638   72.9738   -0.7317 P   0  0  2  0  0  0  0  0  0  0  0  0
   19.2446   74.2392   -1.6485 O   0  0  0  0  0  0  0  0  0  0  0  0
   19.3393   73.1126    0.7267 O   0  0  0  0  0  0  0  0  0  0  0  0
   21.2251   72.7385   -1.0848 O   0  0  0  0  0  0  0  0  0  0  0  0
   22.1990   73.4794   -0.3703 C   0  0  0  0  0  0  0  0  0  0  0  0
   24.4678   73.2936    0.3989 O   0  0  0  0  0  0  0  0  0  0  0  0
   24.7198   70.9758   -1.4866 O   0  0  0  0  0  0  0  0  0  0  0  0
   24.3757   69.7469    0.9233 O   0  0  0  0  0  0  0  0  0  0  0  0
   23.6006   71.3819   -0.7007 C   0  0  1  0  0  0  0  0  0  0  0  0
   23.8296   71.0394    0.7567 C   0  0  2  0  0  0  0  0  0  0  0  0
   23.5769   72.9050   -0.6696 C   0  0  1  0  0  0  0  0  0  0  0  0
   24.7842   72.1381    1.1923 C   0  0  2  0  0  0  0  0  0  0  0  0
   24.7557   70.0066   -1.5214 H   0  0  0  0  0  0  0  0  0  0  0  0
   23.7309   69.0833    0.6324 H   0  0  0  0  0  0  0  0  0  0  0  0
   26.8156   73.2944    2.7779 O   0  0  0  0  0  0  0  0  0  0  0  0
   24.1114   73.3740    6.5092 O   0  0  0  0  0  0  0  0  0  0  0  0
   24.6381   72.4718    2.5811 N   0  0  0  0  0  0  0  0  0  0  0  0
   25.4674   73.3333    4.6345 N   0  0  0  0  0  0  0  0  0  0  0  0
   25.7201   73.0480    3.2866 C   0  0  0  0  0  0  0  0  0  0  0  0
   23.4322   72.2277    3.2293 C   0  0  0  0  0  0  0  0  0  0  0  0
   23.2078   72.5044    4.5155 C   0  0  0  0  0  0  0  0  0  0  0  0
   24.2866   73.1081    5.3241 C   0  0  0  0  0  0  0  0  0  0  0  0
   26.2069   73.7348    5.1461 H   0  0  0  0  0  0  0  0  0  0  0  0
   18.9339   71.7337   -1.4682 O   0  0  0  0  0  0  0  0  0  0  0  0
   19.4795   70.2651   -1.8662 P   0  0  2  0  0  0  0  0  0  0  0  0
   18.1481   69.3475   -1.8126 O   0  0  0  0  0  0  0  0  0  0  0  0
   20.6060   69.7728   -1.0044 O   0  0  0  0  0  0  0  0  0  0  0  0
   19.8368   70.3737   -3.4364 O   0  0  0  0  0  0  0  0  0  0  0  0
   19.8611   72.5644   -4.3402 O   0  0  0  0  0  0  0  0  0  0  0  0
   19.7389   70.4017   -7.8556 O   0  0  0  0  0  0  0  0  0  0  0  0
   22.1664   71.7341   -7.0943 O   0  0  0  0  0  0  0  0  0  0  0  0
   18.2166   69.5125   -5.5596 O   0  0  0  0  0  0  0  0  0  0  0  0
   20.1111   70.6649   -6.5000 C   0  0  1  0  0  0  0  0  0  0  0  0
   20.9091   71.9698   -6.4666 C   0  0  1  0  0  0  0  0  0  0  0  0
   18.8477   70.7853   -5.6499 C   0  0  2  0  0  0  0  0  0  0  0  0
   21.1141   72.4569   -5.0258 C   0  0  1  0  0  0  0  0  0  0  0  0
   19.1568   71.3242   -4.2520 C   0  0  1  0  0  0  0  0  0  0  0  0
   20.5366   70.3236   -8.4007 H   0  0  0  0  0  0  0  0  0  0  0  0
   22.0228   71.4266   -8.0031 H   0  0  0  0  0  0  0  0  0  0  0  0
   18.0258   69.1824   -6.4510 H   0  0  0  0  0  0  0  0  0  0  0  0
   21.6241   74.3550   -3.6671 O   0  0  0  0  0  0  0  0  0  0  0  0
   21.7695   73.8354   -4.9760 C   0  0  0  0  0  0  0  0  0  0  0  0
   22.0369   75.2320   -3.6204 H   0  0  0  0  0  0  0  0  0  0  0  0
 25 28  1  0
 25 24  1  0
 25 26  1  6
 25 27  2  0
  1  4  1  0
  1 24  1  0
  1  2  1  6
  1  3  2  0
  6 11  1  0
  6 12  1  0
 29 36  1  0
 29 37  1  0
  9  7  1  6
  7 13  1  0
 10  8  1  6
  8 14  1  0
 37 28  1  6
  4  5  1  0
 33 30  1  6
 30 38  1  0
 34 31  1  1
 31 39  1  0
 35 32  1  1
 32 40  1  0
 41 42  1  0
 41 43  1  0
 15 19  2  0
 16 22  2  0
 12 17  1  1
 17 19  1  0
 17 20  1  0
 18 19  1  0
 18 22  1  0
 18 23  1  0
  9 10  1  0
  9 11  1  0
 10 12  1  0
 11  5  1  1
 33 34  1  0
 33 35  1  0
 34 36  1  0
 35 37  1  0
 36 42  1  6
 20 21  2  0
 21 22  1  0
M  CHG  2   2  -1  26  -1
M  END
>  <COMPND>  (115) 
    8629 

>  <AUTHOR>  (115) 
    GENERATED BY OPEN BABEL 3.1.1

>  <MASTER>  (115) 
        0    0    0    0    0    0    0    0   58    0   58    0

>  <minimizedAffinity>  (115) 
-6.47526

>  <CNNscore>  (115) 
0.4295674562

>  <CNNaffinity>  (115) 
4.0612936020

>  <CNN_VS>  (115) 
1.7445995808

>  <CNNaffinity_variance>  (115) 
0.1758411676

$$$$
116
     RDKit          3D

 43 45  0  0  0  0  0  0  0  0999 V2000
   19.6654   72.2482   -0.9143 P   0  0  2  0  0  0  0  0  0  0  0  0
   19.9545   73.6086   -0.0878 O   0  0  0  0  0  0  0  0  0  0  0  0
   18.2141   71.9318   -1.1265 O   0  0  0  0  0  0  0  0  0  0  0  0
   20.5214   71.1248   -0.1249 O   0  0  0  0  0  0  0  0  0  0  0  0
   21.2914   71.5249    0.9953 C   0  0  0  0  0  0  0  0  0  0  0  0
   23.1194   70.7845   -0.3773 O   0  0  0  0  0  0  0  0  0  0  0  0
   24.6550   70.4477    2.1760 O   0  0  0  0  0  0  0  0  0  0  0  0
   25.6069   72.8168    1.2180 O   0  0  0  0  0  0  0  0  0  0  0  0
   23.6950   71.4431    1.8252 C   0  0  1  0  0  0  0  0  0  0  0  0
   24.2971   72.4341    0.8510 C   0  0  2  0  0  0  0  0  0  0  0  0
   22.6180   70.7779    0.9773 C   0  0  1  0  0  0  0  0  0  0  0  0
   24.2592   71.6563   -0.4535 C   0  0  2  0  0  0  0  0  0  0  0  0
   25.3529   70.8488    2.7182 H   0  0  0  0  0  0  0  0  0  0  0  0
   25.5782   73.3083    2.0537 H   0  0  0  0  0  0  0  0  0  0  0  0
   25.1095   70.9881   -3.0628 O   0  0  0  0  0  0  0  0  0  0  0  0
   23.6598   75.0184   -4.7647 O   0  0  0  0  0  0  0  0  0  0  0  0
   24.1160   72.5121   -1.5974 N   0  0  0  0  0  0  0  0  0  0  0  0
   24.3868   72.9954   -3.9081 N   0  0  0  0  0  0  0  0  0  0  0  0
   24.5773   72.0820   -2.8633 C   0  0  0  0  0  0  0  0  0  0  0  0
   23.5234   73.7624   -1.4576 C   0  0  0  0  0  0  0  0  0  0  0  0
   23.3504   74.6221   -2.4637 C   0  0  0  0  0  0  0  0  0  0  0  0
   23.8046   74.2498   -3.8191 C   0  0  0  0  0  0  0  0  0  0  0  0
   24.7008   72.7174   -4.7992 H   0  0  0  0  0  0  0  0  0  0  0  0
   20.5131   72.4619   -2.2740 O   0  0  0  0  0  0  0  0  0  0  0  0
   20.6094   71.5669   -3.6167 P   0  0  2  0  0  0  0  0  0  0  0  0
   21.3685   70.2285   -3.1168 O   0  0  0  0  0  0  0  0  0  0  0  0
   21.2720   72.2598   -4.7719 O   0  0  0  0  0  0  0  0  0  0  0  0
   19.0930   71.0932   -3.9014 O   0  0  0  0  0  0  0  0  0  0  0  0
   18.3726   70.8850   -6.1496 O   0  0  0  0  0  0  0  0  0  0  0  0
   14.6906   71.1396   -4.2979 O   0  0  0  0  0  0  0  0  0  0  0  0
   15.5700   68.6225   -5.3651 O   0  0  0  0  0  0  0  0  0  0  0  0
   16.8987   72.7530   -3.3490 O   0  0  0  0  0  0  0  0  0  0  0  0
   16.0649   70.7627   -4.4189 C   0  0  1  0  0  0  0  0  0  0  0  0
   16.2093   69.8640   -5.6486 C   0  0  1  0  0  0  0  0  0  0  0  0
   16.9163   72.0219   -4.5703 C   0  0  2  0  0  0  0  0  0  0  0  0
   17.6861   69.6369   -5.9985 C   0  0  1  0  0  0  0  0  0  0  0  0
   18.3552   71.6865   -4.9668 C   0  0  1  0  0  0  0  0  0  0  0  0
   14.1446   70.3446   -4.2009 H   0  0  0  0  0  0  0  0  0  0  0  0
   14.6383   68.7800   -5.1452 H   0  0  0  0  0  0  0  0  0  0  0  0
   15.9824   72.9595   -3.1090 H   0  0  0  0  0  0  0  0  0  0  0  0
   17.1132   69.5443   -8.3163 O   0  0  0  0  0  0  0  0  0  0  0  0
   17.8521   68.8747   -7.3114 C   0  0  0  0  0  0  0  0  0  0  0  0
   17.2098   69.0705   -9.1577 H   0  0  0  0  0  0  0  0  0  0  0  0
 25 28  1  0
 25 24  1  0
 25 26  1  1
 25 27  2  0
  1  4  1  0
  1 24  1  0
  1  2  1  1
  1  3  2  0
  6 11  1  0
  6 12  1  0
 29 36  1  0
 29 37  1  0
  9  7  1  6
  7 13  1  0
 10  8  1  1
  8 14  1  0
 37 28  1  1
  4  5  1  0
 33 30  1  6
 30 38  1  0
 34 31  1  1
 31 39  1  0
 35 32  1  1
 32 40  1  0
 41 42  1  0
 41 43  1  0
 15 19  2  0
 16 22  2  0
 12 17  1  6
 17 19  1  0
 17 20  1  0
 18 19  1  0
 18 22  1  0
 18 23  1  0
  9 10  1  0
  9 11  1  0
 10 12  1  0
 11  5  1  6
 33 34  1  0
 33 35  1  0
 34 36  1  0
 35 37  1  0
 36 42  1  6
 20 21  2  0
 21 22  1  0
M  CHG  2   2  -1  26  -1
M  END
>  <COMPND>  (116) 
    8629 

>  <AUTHOR>  (116) 
    GENERATED BY OPEN BABEL 3.1.1

>  <MASTER>  (116) 
        0    0    0    0    0    0    0    0   58    0   58    0

>  <minimizedAffinity>  (116) 
-6.78745

>  <CNNscore>  (116) 
0.4235411882

>  <CNNaffinity>  (116) 
3.9124195576

>  <CNN_VS>  (116) 
1.6570708752

>  <CNNaffinity_variance>  (116) 
0.6179456115

$$$$
117
     RDKit          3D

 43 45  0  0  0  0  0  0  0  0999 V2000
   19.7666   72.5849   -1.7212 P   0  0  2  0  0  0  0  0  0  0  0  0
   18.1518   72.5401   -1.8096 O   0  0  0  0  0  0  0  0  0  0  0  0
   20.3351   73.8497   -1.1480 O   0  0  0  0  0  0  0  0  0  0  0  0
   20.2481   72.2145   -3.2209 O   0  0  0  0  0  0  0  0  0  0  0  0
   21.0675   73.1386   -3.9155 C   0  0  0  0  0  0  0  0  0  0  0  0
   21.4727   71.1484   -5.1994 O   0  0  0  0  0  0  0  0  0  0  0  0
   23.8095   72.6106   -6.3794 O   0  0  0  0  0  0  0  0  0  0  0  0
   21.9207   72.8330   -8.3338 O   0  0  0  0  0  0  0  0  0  0  0  0
   22.5304   73.1134   -5.9969 C   0  0  1  0  0  0  0  0  0  0  0  0
   21.4775   72.6897   -6.9997 C   0  0  2  0  0  0  0  0  0  0  0  0
   22.0907   72.3709   -4.7412 C   0  0  1  0  0  0  0  0  0  0  0  0
   21.2413   71.2392   -6.6147 C   0  0  2  0  0  0  0  0  0  0  0  0
   24.1114   73.0701   -7.1792 H   0  0  0  0  0  0  0  0  0  0  0  0
   22.0566   73.7730   -8.5303 H   0  0  0  0  0  0  0  0  0  0  0  0
   20.5577   68.6723   -7.5748 O   0  0  0  0  0  0  0  0  0  0  0  0
   16.0659   69.7005   -7.6620 O   0  0  0  0  0  0  0  0  0  0  0  0
   19.9008   70.8090   -6.8965 N   0  0  0  0  0  0  0  0  0  0  0  0
   18.3217   69.1863   -7.6172 N   0  0  0  0  0  0  0  0  0  0  0  0
   19.6655   69.4994   -7.3762 C   0  0  0  0  0  0  0  0  0  0  0  0
   18.8366   71.6816   -6.6967 C   0  0  0  0  0  0  0  0  0  0  0  0
   17.5610   71.3679   -6.9326 C   0  0  0  0  0  0  0  0  0  0  0  0
   17.2290   70.0192   -7.4354 C   0  0  0  0  0  0  0  0  0  0  0  0
   18.1337   68.2795   -7.9523 H   0  0  0  0  0  0  0  0  0  0  0  0
   20.1221   71.2480   -0.8849 O   0  0  0  0  0  0  0  0  0  0  0  0
   21.5379   70.5267   -0.5879 P   0  0  2  0  0  0  0  0  0  0  0  0
   22.0105   70.0208   -2.0502 O   0  0  0  0  0  0  0  0  0  0  0  0
   21.4712   69.4443    0.4502 O   0  0  0  0  0  0  0  0  0  0  0  0
   22.5452   71.7359   -0.2297 O   0  0  0  0  0  0  0  0  0  0  0  0
   24.3130   72.9958   -1.1805 O   0  0  0  0  0  0  0  0  0  0  0  0
   26.2183   71.6537    2.2283 O   0  0  0  0  0  0  0  0  0  0  0  0
   25.4417   74.4116    2.0305 O   0  0  0  0  0  0  0  0  0  0  0  0
   24.4028   69.9048    0.8052 O   0  0  0  0  0  0  0  0  0  0  0  0
   25.1098   72.1149    1.4510 C   0  0  1  0  0  0  0  0  0  0  0  0
   25.4415   73.5127    0.9249 C   0  0  1  0  0  0  0  0  0  0  0  0
   24.8747   71.1465    0.2933 C   0  0  2  0  0  0  0  0  0  0  0  0
   24.4226   73.9637   -0.1303 C   0  0  1  0  0  0  0  0  0  0  0  0
   23.8819   71.7123   -0.7236 C   0  0  1  0  0  0  0  0  0  0  0  0
   26.3726   72.2639    2.9654 H   0  0  0  0  0  0  0  0  0  0  0  0
   26.0889   74.1152    2.6896 H   0  0  0  0  0  0  0  0  0  0  0  0
   25.0402   69.5568    1.4475 H   0  0  0  0  0  0  0  0  0  0  0  0
   24.4025   76.3455    0.0582 O   0  0  0  0  0  0  0  0  0  0  0  0
   24.8214   75.2859   -0.7821 C   0  0  0  0  0  0  0  0  0  0  0  0
   24.6500   77.1933   -0.3438 H   0  0  0  0  0  0  0  0  0  0  0  0
 25 28  1  0
 25 24  1  0
 25 26  1  6
 25 27  2  0
  1  4  1  0
  1 24  1  0
  1  2  1  6
  1  3  2  0
  6 11  1  0
  6 12  1  0
 29 36  1  0
 29 37  1  0
  9  7  1  6
  7 13  1  0
 10  8  1  6
  8 14  1  0
 37 28  1  1
  4  5  1  0
 33 30  1  6
 30 38  1  0
 34 31  1  1
 31 39  1  0
 35 32  1  1
 32 40  1  0
 41 42  1  0
 41 43  1  0
 15 19  2  0
 16 22  2  0
 12 17  1  1
 17 19  1  0
 17 20  1  0
 18 19  1  0
 18 22  1  0
 18 23  1  0
  9 10  1  0
  9 11  1  0
 10 12  1  0
 11  5  1  6
 33 34  1  0
 33 35  1  0
 34 36  1  0
 35 37  1  0
 36 42  1  6
 20 21  2  0
 21 22  1  0
M  CHG  2   2  -1  26  -1
M  END
>  <COMPND>  (117) 
    8629 

>  <AUTHOR>  (117) 
    GENERATED BY OPEN BABEL 3.1.1

>  <MASTER>  (117) 
        0    0    0    0    0    0    0    0   58    0   58    0

>  <minimizedAffinity>  (117) 
-7.07592

>  <CNNscore>  (117) 
0.4192388654

>  <CNNaffinity>  (117) 
4.1495280266

>  <CNN_VS>  (117) 
1.7396434546

>  <CNNaffinity_variance>  (117) 
0.1556911170

$$$$
118
     RDKit          3D

 43 45  0  0  0  0  0  0  0  0999 V2000
   23.1239   73.2250   -4.7437 P   0  0  2  0  0  0  0  0  0  0  0  0
   23.1558   74.8422   -4.7784 O   0  0  0  0  0  0  0  0  0  0  0  0
   23.8619   72.5524   -5.8637 O   0  0  0  0  0  0  0  0  0  0  0  0
   21.5498   72.8699   -4.6265 O   0  0  0  0  0  0  0  0  0  0  0  0
   20.8356   72.5639   -5.8114 C   0  0  0  0  0  0  0  0  0  0  0  0
   19.7434   70.5271   -5.1540 O   0  0  0  0  0  0  0  0  0  0  0  0
   20.9603   69.3031   -7.6058 O   0  0  0  0  0  0  0  0  0  0  0  0
   18.3946   69.7858   -8.3934 O   0  0  0  0  0  0  0  0  0  0  0  0
   20.4554   70.6232   -7.4122 C   0  0  1  0  0  0  0  0  0  0  0  0
   18.9413   70.6081   -7.3826 C   0  0  2  0  0  0  0  0  0  0  0  0
   20.7970   71.0525   -5.9907 C   0  0  1  0  0  0  0  0  0  0  0  0
   18.6587   70.0829   -5.9853 C   0  0  2  0  0  0  0  0  0  0  0  0
   20.7545   69.0073   -8.5070 H   0  0  0  0  0  0  0  0  0  0  0  0
   18.6012   70.1619   -9.2633 H   0  0  0  0  0  0  0  0  0  0  0  0
   16.7674   68.5156   -4.5909 O   0  0  0  0  0  0  0  0  0  0  0  0
   13.9600   72.1192   -3.9791 O   0  0  0  0  0  0  0  0  0  0  0  0
   17.4250   70.5859   -5.4503 N   0  0  0  0  0  0  0  0  0  0  0  0
   15.3712   70.3112   -4.2872 N   0  0  0  0  0  0  0  0  0  0  0  0
   16.5442   69.7151   -4.7674 C   0  0  0  0  0  0  0  0  0  0  0  0
   17.0992   71.9290   -5.6047 C   0  0  0  0  0  0  0  0  0  0  0  0
   15.9759   72.4817   -5.1419 C   0  0  0  0  0  0  0  0  0  0  0  0
   15.0019   71.6407   -4.4166 C   0  0  0  0  0  0  0  0  0  0  0  0
   14.7423   69.7237   -3.8085 H   0  0  0  0  0  0  0  0  0  0  0  0
   23.6848   72.8820   -3.2670 O   0  0  0  0  0  0  0  0  0  0  0  0
   23.8298   71.4735   -2.4872 P   0  0  2  0  0  0  0  0  0  0  0  0
   25.3449   71.0171   -2.8244 O   0  0  0  0  0  0  0  0  0  0  0  0
   22.7829   70.4598   -2.8479 O   0  0  0  0  0  0  0  0  0  0  0  0
   23.8631   71.8736   -0.9239 O   0  0  0  0  0  0  0  0  0  0  0  0
   25.0546   71.0815    0.9653 O   0  0  0  0  0  0  0  0  0  0  0  0
   21.3072   71.4567    2.6585 O   0  0  0  0  0  0  0  0  0  0  0  0
   23.3711   73.3288    3.3537 O   0  0  0  0  0  0  0  0  0  0  0  0
   21.5740   70.4991   -0.0602 O   0  0  0  0  0  0  0  0  0  0  0  0
   22.3855   71.8120    1.7888 C   0  0  1  0  0  0  0  0  0  0  0  0
   23.6146   72.1151    2.6481 C   0  0  1  0  0  0  0  0  0  0  0  0
   22.6663   70.6479    0.8405 C   0  0  2  0  0  0  0  0  0  0  0  0
   24.8765   72.2431    1.7842 C   0  0  1  0  0  0  0  0  0  0  0  0
   23.9689   70.8527    0.0649 C   0  0  1  0  0  0  0  0  0  0  0  0
   21.1235   72.1918    3.2630 H   0  0  0  0  0  0  0  0  0  0  0  0
   22.5715   73.2347    3.8949 H   0  0  0  0  0  0  0  0  0  0  0  0
   20.7555   70.3698    0.4430 H   0  0  0  0  0  0  0  0  0  0  0  0
   27.0461   71.3660    2.2664 O   0  0  0  0  0  0  0  0  0  0  0  0
   26.1380   72.3886    2.6325 C   0  0  0  0  0  0  0  0  0  0  0  0
   27.8540   71.4463    2.7980 H   0  0  0  0  0  0  0  0  0  0  0  0
 25 28  1  0
 25 24  1  0
 25 26  1  6
 25 27  2  0
  1  4  1  0
  1 24  1  0
  1  2  1  6
  1  3  2  0
  6 11  1  0
  6 12  1  0
 29 36  1  0
 29 37  1  0
  9  7  1  1
  7 13  1  0
 10  8  1  6
  8 14  1  0
 37 28  1  6
  4  5  1  0
 33 30  1  1
 30 38  1  0
 34 31  1  6
 31 39  1  0
 35 32  1  6
 32 40  1  0
 41 42  1  0
 41 43  1  0
 15 19  2  0
 16 22  2  0
 12 17  1  1
 17 19  1  0
 17 20  1  0
 18 19  1  0
 18 22  1  0
 18 23  1  0
  9 10  1  0
  9 11  1  0
 10 12  1  0
 11  5  1  6
 33 34  1  0
 33 35  1  0
 34 36  1  0
 35 37  1  0
 36 42  1  1
 20 21  2  0
 21 22  1  0
M  CHG  2   2  -1  26  -1
M  END
>  <COMPND>  (118) 
    8629 

>  <AUTHOR>  (118) 
    GENERATED BY OPEN BABEL 3.1.1

>  <MASTER>  (118) 
        0    0    0    0    0    0    0    0   58    0   58    0

>  <minimizedAffinity>  (118) 
-8.01192

>  <CNNscore>  (118) 
0.4164707363

>  <CNNaffinity>  (118) 
4.3279352188

>  <CNN_VS>  (118) 
1.8024584055

>  <CNNaffinity_variance>  (118) 
0.0957589895

$$$$
119
     RDKit          3D

 43 45  0  0  0  0  0  0  0  0999 V2000
   17.3779   70.0571   -2.2836 P   0  0  2  0  0  0  0  0  0  0  0  0
   17.2454   68.5622   -1.6794 O   0  0  0  0  0  0  0  0  0  0  0  0
   16.2010   70.9515   -2.0261 O   0  0  0  0  0  0  0  0  0  0  0  0
   17.7497   69.8155   -3.8397 O   0  0  0  0  0  0  0  0  0  0  0  0
   16.8474   69.0753   -4.6433 C   0  0  0  0  0  0  0  0  0  0  0  0
   16.8971   71.2737   -5.6120 O   0  0  0  0  0  0  0  0  0  0  0  0
   15.2236   70.1334   -7.8234 O   0  0  0  0  0  0  0  0  0  0  0  0
   17.7161   70.1819   -8.9286 O   0  0  0  0  0  0  0  0  0  0  0  0
   16.2783   69.5216   -7.0826 C   0  0  1  0  0  0  0  0  0  0  0  0
   17.6185   70.0722   -7.5232 C   0  0  2  0  0  0  0  0  0  0  0  0
   16.1890   70.0152   -5.6440 C   0  0  1  0  0  0  0  0  0  0  0  0
   17.6482   71.4227   -6.8280 C   0  0  2  0  0  0  0  0  0  0  0  0
   15.2599   69.8330   -8.7455 H   0  0  0  0  0  0  0  0  0  0  0  0
   17.6928   69.2967   -9.3246 H   0  0  0  0  0  0  0  0  0  0  0  0
   18.4417   74.1150   -6.5118 O   0  0  0  0  0  0  0  0  0  0  0  0
   22.7938   72.9148   -5.5844 O   0  0  0  0  0  0  0  0  0  0  0  0
   18.9824   71.8424   -6.5035 N   0  0  0  0  0  0  0  0  0  0  0  0
   20.6080   73.5152   -6.0501 N   0  0  0  0  0  0  0  0  0  0  0  0
   19.2764   73.2192   -6.3682 C   0  0  0  0  0  0  0  0  0  0  0  0
   19.9826   70.8934   -6.3225 C   0  0  0  0  0  0  0  0  0  0  0  0
   21.2479   71.1921   -6.0207 C   0  0  0  0  0  0  0  0  0  0  0  0
   21.6384   72.6078   -5.8616 C   0  0  0  0  0  0  0  0  0  0  0  0
   20.8362   74.4680   -5.9513 H   0  0  0  0  0  0  0  0  0  0  0  0
   18.7716   70.5813   -1.6544 O   0  0  0  0  0  0  0  0  0  0  0  0
   19.4469   72.0499   -1.6464 P   0  0  2  0  0  0  0  0  0  0  0  0
   18.5230   72.8775   -0.6076 O   0  0  0  0  0  0  0  0  0  0  0  0
   19.5680   72.6789   -3.0042 O   0  0  0  0  0  0  0  0  0  0  0  0
   20.8500   71.8501   -0.8742 O   0  0  0  0  0  0  0  0  0  0  0  0
   22.7639   71.5455   -2.2383 O   0  0  0  0  0  0  0  0  0  0  0  0
   24.2973   70.2134    1.3569 O   0  0  0  0  0  0  0  0  0  0  0  0
   25.1470   72.7470    0.3047 O   0  0  0  0  0  0  0  0  0  0  0  0
   21.5631   69.5944    0.6352 O   0  0  0  0  0  0  0  0  0  0  0  0
   23.4896   71.0346    0.5091 C   0  0  1  0  0  0  0  0  0  0  0  0
   24.4132   71.7872   -0.4508 C   0  0  1  0  0  0  0  0  0  0  0  0
   22.5168   70.1475   -0.2655 C   0  0  2  0  0  0  0  0  0  0  0  0
   23.6120   72.4804   -1.5611 C   0  0  1  0  0  0  0  0  0  0  0  0
   21.8082   70.9229   -1.3775 C   0  0  1  0  0  0  0  0  0  0  0  0
   24.9169   70.7707    1.8519 H   0  0  0  0  0  0  0  0  0  0  0  0
   25.6480   72.2964    1.0026 H   0  0  0  0  0  0  0  0  0  0  0  0
   22.0242   69.1058    1.3342 H   0  0  0  0  0  0  0  0  0  0  0  0
   24.8954   72.0979   -3.5398 O   0  0  0  0  0  0  0  0  0  0  0  0
   24.5209   73.1047   -2.6176 C   0  0  0  0  0  0  0  0  0  0  0  0
   25.4739   72.4809   -4.2184 H   0  0  0  0  0  0  0  0  0  0  0  0
 25 28  1  0
 25 24  1  0
 25 26  1  1
 25 27  2  0
  1  4  1  0
  1 24  1  0
  1  2  1  1
  1  3  2  0
  6 11  1  0
  6 12  1  0
 29 36  1  0
 29 37  1  0
  9  7  1  6
  7 13  1  0
 10  8  1  6
  8 14  1  0
 37 28  1  1
  4  5  1  0
 33 30  1  1
 30 38  1  0
 34 31  1  1
 31 39  1  0
 35 32  1  1
 32 40  1  0
 41 42  1  0
 41 43  1  0
 15 19  2  0
 16 22  2  0
 12 17  1  1
 17 19  1  0
 17 20  1  0
 18 19  1  0
 18 22  1  0
 18 23  1  0
  9 10  1  0
  9 11  1  0
 10 12  1  0
 11  5  1  1
 33 34  1  0
 33 35  1  0
 34 36  1  0
 35 37  1  0
 36 42  1  6
 20 21  2  0
 21 22  1  0
M  CHG  2   2  -1  26  -1
M  END
>  <COMPND>  (119) 
    8629 

>  <AUTHOR>  (119) 
    GENERATED BY OPEN BABEL 3.1.1

>  <MASTER>  (119) 
        0    0    0    0    0    0    0    0   58    0   58    0

>  <minimizedAffinity>  (119) 
-7.76576

>  <CNNscore>  (119) 
0.3658540845

>  <CNNaffinity>  (119) 
3.9406001568

>  <CNN_VS>  (119) 
1.4416846037

>  <CNNaffinity_variance>  (119) 
1.0872699022

$$$$
120
     RDKit          3D

 43 45  0  0  0  0  0  0  0  0999 V2000
   21.9313   72.9859   -5.1592 P   0  0  2  0  0  0  0  0  0  0  0  0
   22.8892   72.5808   -6.3984 O   0  0  0  0  0  0  0  0  0  0  0  0
   21.2733   71.8311   -4.4629 O   0  0  0  0  0  0  0  0  0  0  0  0
   20.9299   74.0907   -5.7875 O   0  0  0  0  0  0  0  0  0  0  0  0
   19.5957   74.1414   -5.3129 C   0  0  0  0  0  0  0  0  0  0  0  0
   18.4120   72.2617   -6.2291 O   0  0  0  0  0  0  0  0  0  0  0  0
   16.7236   74.2704   -7.6799 O   0  0  0  0  0  0  0  0  0  0  0  0
   15.1313   73.5590   -5.5835 O   0  0  0  0  0  0  0  0  0  0  0  0
   17.2921   74.3451   -6.3736 C   0  0  1  0  0  0  0  0  0  0  0  0
   16.5304   73.4518   -5.4168 C   0  0  2  0  0  0  0  0  0  0  0  0
   18.6585   73.6724   -6.4174 C   0  0  1  0  0  0  0  0  0  0  0  0
   17.0590   72.0752   -5.7825 C   0  0  2  0  0  0  0  0  0  0  0  0
   15.8504   74.6940   -7.6770 H   0  0  0  0  0  0  0  0  0  0  0  0
   14.8438   74.4523   -5.3382 H   0  0  0  0  0  0  0  0  0  0  0  0
   15.7259   69.5854   -5.7446 O   0  0  0  0  0  0  0  0  0  0  0  0
   17.1182   68.6985   -1.4416 O   0  0  0  0  0  0  0  0  0  0  0  0
   17.0568   71.1732   -4.6654 N   0  0  0  0  0  0  0  0  0  0  0  0
   16.4204   69.1457   -3.6022 N   0  0  0  0  0  0  0  0  0  0  0  0
   16.3552   69.9479   -4.7485 C   0  0  0  0  0  0  0  0  0  0  0  0
   17.7452   71.5067   -3.5041 C   0  0  0  0  0  0  0  0  0  0  0  0
   17.7965   70.7312   -2.4191 C   0  0  0  0  0  0  0  0  0  0  0  0
   17.0901   69.4339   -2.4235 C   0  0  0  0  0  0  0  0  0  0  0  0
   15.9388   68.2875   -3.6368 H   0  0  0  0  0  0  0  0  0  0  0  0
   22.9056   73.8707   -4.2208 O   0  0  0  0  0  0  0  0  0  0  0  0
   24.0697   73.4329   -3.1881 P   0  0  2  0  0  0  0  0  0  0  0  0
   24.6464   74.8483   -2.6573 O   0  0  0  0  0  0  0  0  0  0  0  0
   25.1077   72.5242   -3.7802 O   0  0  0  0  0  0  0  0  0  0  0  0
   23.2817   72.8136   -1.9230 O   0  0  0  0  0  0  0  0  0  0  0  0
   24.3033   71.9682    0.0413 O   0  0  0  0  0  0  0  0  0  0  0  0
   20.8946   69.6377    0.0149 O   0  0  0  0  0  0  0  0  0  0  0  0
   21.1577   71.7434    1.9501 O   0  0  0  0  0  0  0  0  0  0  0  0
   22.2302   70.2708   -2.4741 O   0  0  0  0  0  0  0  0  0  0  0  0
   21.6632   70.8246   -0.1996 C   0  0  1  0  0  0  0  0  0  0  0  0
   22.2363   71.2744    1.1458 C   0  0  1  0  0  0  0  0  0  0  0  0
   22.7873   70.5195   -1.1879 C   0  0  2  0  0  0  0  0  0  0  0  0
   23.2841   72.3801    0.9597 C   0  0  1  0  0  0  0  0  0  0  0  0
   23.8008   71.6630   -1.2611 C   0  0  1  0  0  0  0  0  0  0  0  0
   20.1788   69.8247    0.6411 H   0  0  0  0  0  0  0  0  0  0  0  0
   20.5029   71.0359    2.0594 H   0  0  0  0  0  0  0  0  0  0  0  0
   21.5906   69.5447   -2.4144 H   0  0  0  0  0  0  0  0  0  0  0  0
   23.8903   71.6214    3.1427 O   0  0  0  0  0  0  0  0  0  0  0  0
   23.9819   72.7334    2.2713 C   0  0  0  0  0  0  0  0  0  0  0  0
   24.3305   71.8317    3.9816 H   0  0  0  0  0  0  0  0  0  0  0  0
 25 28  1  0
 25 24  1  0
 25 26  1  1
 25 27  2  0
  1  4  1  0
  1 24  1  0
  1  2  1  6
  1  3  2  0
  6 11  1  0
  6 12  1  0
 29 36  1  0
 29 37  1  0
  9  7  1  6
  7 13  1  0
 10  8  1  6
  8 14  1  0
 37 28  1  1
  4  5  1  0
 33 30  1  1
 30 38  1  0
 34 31  1  1
 31 39  1  0
 35 32  1  6
 32 40  1  0
 41 42  1  0
 41 43  1  0
 15 19  2  0
 16 22  2  0
 12 17  1  1
 17 19  1  0
 17 20  1  0
 18 19  1  0
 18 22  1  0
 18 23  1  0
  9 10  1  0
  9 11  1  0
 10 12  1  0
 11  5  1  1
 33 34  1  0
 33 35  1  0
 34 36  1  0
 35 37  1  0
 36 42  1  1
 20 21  2  0
 21 22  1  0
M  CHG  2   2  -1  26  -1
M  END
>  <COMPND>  (120) 
    8629 

>  <AUTHOR>  (120) 
    GENERATED BY OPEN BABEL 3.1.1

>  <MASTER>  (120) 
        0    0    0    0    0    0    0    0   58    0   58    0

>  <minimizedAffinity>  (120) 
-6.59902

>  <CNNscore>  (120) 
0.3564946651

>  <CNNaffinity>  (120) 
3.9649424553

>  <CNN_VS>  (120) 
1.4134808779

>  <CNNaffinity_variance>  (120) 
0.1990252286

$$$$
121
     RDKit          3D

 43 45  0  0  0  0  0  0  0  0999 V2000
   23.5428   71.3379   -2.4575 P   0  0  2  0  0  0  0  0  0  0  0  0
   25.0523   71.1542   -3.0098 O   0  0  0  0  0  0  0  0  0  0  0  0
   22.5932   70.2377   -2.8306 O   0  0  0  0  0  0  0  0  0  0  0  0
   23.1270   72.8220   -2.9498 O   0  0  0  0  0  0  0  0  0  0  0  0
   22.1846   72.9465   -4.0006 C   0  0  0  0  0  0  0  0  0  0  0  0
   22.2440   71.3326   -5.7798 O   0  0  0  0  0  0  0  0  0  0  0  0
   23.6896   73.4207   -7.3738 O   0  0  0  0  0  0  0  0  0  0  0  0
   21.1459   73.5887   -8.3425 O   0  0  0  0  0  0  0  0  0  0  0  0
   22.6380   73.5792   -6.4228 C   0  0  1  0  0  0  0  0  0  0  0  0
   21.3194   73.1301   -7.0172 C   0  0  2  0  0  0  0  0  0  0  0  0
   22.8511   72.5573   -5.3130 C   0  0  1  0  0  0  0  0  0  0  0  0
   21.4345   71.6175   -6.9324 C   0  0  2  0  0  0  0  0  0  0  0  0
   23.5751   74.0631   -8.0923 H   0  0  0  0  0  0  0  0  0  0  0  0
   21.0780   74.5563   -8.3436 H   0  0  0  0  0  0  0  0  0  0  0  0
   19.8840   70.6034   -9.0644 O   0  0  0  0  0  0  0  0  0  0  0  0
   16.5524   69.1898   -6.2107 O   0  0  0  0  0  0  0  0  0  0  0  0
   20.1581   70.9792   -6.7751 N   0  0  0  0  0  0  0  0  0  0  0  0
   18.2265   69.9002   -7.6417 N   0  0  0  0  0  0  0  0  0  0  0  0
   19.4605   70.5059   -7.9108 C   0  0  0  0  0  0  0  0  0  0  0  0
   19.6109   70.8275   -5.5057 C   0  0  0  0  0  0  0  0  0  0  0  0
   18.4323   70.2487   -5.2662 C   0  0  0  0  0  0  0  0  0  0  0  0
   17.6396   69.7271   -6.3982 C   0  0  0  0  0  0  0  0  0  0  0  0
   17.7224   69.5632   -8.4177 H   0  0  0  0  0  0  0  0  0  0  0  0
   23.7586   71.5298   -0.8670 O   0  0  0  0  0  0  0  0  0  0  0  0
   22.7003   71.5345    0.3549 P   0  0  2  0  0  0  0  0  0  0  0  0
   22.6234   69.9768    0.7851 O   0  0  0  0  0  0  0  0  0  0  0  0
   21.3732   72.1499    0.0172 O   0  0  0  0  0  0  0  0  0  0  0  0
   23.4819   72.2548    1.5695 O   0  0  0  0  0  0  0  0  0  0  0  0
   25.3470   71.2524    2.6340 O   0  0  0  0  0  0  0  0  0  0  0  0
   24.0931   73.7272    5.6924 O   0  0  0  0  0  0  0  0  0  0  0  0
   26.4900   74.3650    4.2446 O   0  0  0  0  0  0  0  0  0  0  0  0
   22.1412   72.3816    4.0314 O   0  0  0  0  0  0  0  0  0  0  0  0
   24.3251   73.3520    4.3319 C   0  0  1  0  0  0  0  0  0  0  0  0
   25.8246   73.1085    4.1506 C   0  0  1  0  0  0  0  0  0  0  0  0
   23.5330   72.0831    4.0221 C   0  0  2  0  0  0  0  0  0  0  0  0
   26.1189   72.4479    2.7970 C   0  0  1  0  0  0  0  0  0  0  0  0
   23.9369   71.4798    2.6757 C   0  0  1  0  0  0  0  0  0  0  0  0
   24.5928   74.5326    5.8954 H   0  0  0  0  0  0  0  0  0  0  0  0
   26.2956   74.7718    5.1036 H   0  0  0  0  0  0  0  0  0  0  0  0
   21.8980   72.7626    4.8891 H   0  0  0  0  0  0  0  0  0  0  0  0
   28.1708   72.0389    3.9508 O   0  0  0  0  0  0  0  0  0  0  0  0
   27.5876   72.0527    2.6608 C   0  0  0  0  0  0  0  0  0  0  0  0
   29.1057   71.7886    3.8797 H   0  0  0  0  0  0  0  0  0  0  0  0
 25 28  1  0
 25 24  1  0
 25 26  1  1
 25 27  2  0
  1  4  1  0
  1 24  1  0
  1  2  1  6
  1  3  2  0
  6 11  1  0
  6 12  1  0
 29 36  1  0
 29 37  1  0
  9  7  1  6
  7 13  1  0
 10  8  1  6
  8 14  1  0
 37 28  1  6
  4  5  1  0
 33 30  1  1
 30 38  1  0
 34 31  1  6
 31 39  1  0
 35 32  1  6
 32 40  1  0
 41 42  1  0
 41 43  1  0
 15 19  2  0
 16 22  2  0
 12 17  1  1
 17 19  1  0
 17 20  1  0
 18 19  1  0
 18 22  1  0
 18 23  1  0
  9 10  1  0
  9 11  1  0
 10 12  1  0
 11  5  1  1
 33 34  1  0
 33 35  1  0
 34 36  1  0
 35 37  1  0
 36 42  1  1
 20 21  2  0
 21 22  1  0
M  CHG  2   2  -1  26  -1
M  END
>  <COMPND>  (121) 
    8629 

>  <AUTHOR>  (121) 
    GENERATED BY OPEN BABEL 3.1.1

>  <MASTER>  (121) 
        0    0    0    0    0    0    0    0   58    0   58    0

>  <minimizedAffinity>  (121) 
-7.27302

>  <CNNscore>  (121) 
0.8299319744

>  <CNNaffinity>  (121) 
4.6281304359

>  <CNN_VS>  (121) 
3.8410334587

>  <CNNaffinity_variance>  (121) 
0.0912902951

$$$$
122
     RDKit          3D

 43 45  0  0  0  0  0  0  0  0999 V2000
   23.6467   71.6883   -2.3719 P   0  0  2  0  0  0  0  0  0  0  0  0
   24.9775   70.8598   -2.7718 O   0  0  0  0  0  0  0  0  0  0  0  0
   23.2864   72.8009   -3.3120 O   0  0  0  0  0  0  0  0  0  0  0  0
   23.9070   72.1233   -0.8354 O   0  0  0  0  0  0  0  0  0  0  0  0
   24.6282   71.2391    0.0047 C   0  0  0  0  0  0  0  0  0  0  0  0
   24.6377   70.8495    2.3758 O   0  0  0  0  0  0  0  0  0  0  0  0
   21.6810   71.3390    2.2791 O   0  0  0  0  0  0  0  0  0  0  0  0
   22.6461   73.7121    3.2139 O   0  0  0  0  0  0  0  0  0  0  0  0
   22.7234   71.9607    1.5293 C   0  0  1  0  0  0  0  0  0  0  0  0
   23.4961   72.9262    2.4035 C   0  0  2  0  0  0  0  0  0  0  0  0
   23.7741   70.9018    1.2192 C   0  0  1  0  0  0  0  0  0  0  0  0
   24.3716   71.9858    3.2142 C   0  0  2  0  0  0  0  0  0  0  0  0
   20.9979   71.9958    2.4887 H   0  0  0  0  0  0  0  0  0  0  0  0
   22.1100   74.2932    2.6521 H   0  0  0  0  0  0  0  0  0  0  0  0
   24.7310   73.6108    5.4963 O   0  0  0  0  0  0  0  0  0  0  0  0
   29.2004   74.2447    4.5667 O   0  0  0  0  0  0  0  0  0  0  0  0
   25.6186   72.5882    3.5928 N   0  0  0  0  0  0  0  0  0  0  0  0
   26.9561   73.9249    5.0317 N   0  0  0  0  0  0  0  0  0  0  0  0
   25.6920   73.3877    4.7572 C   0  0  0  0  0  0  0  0  0  0  0  0
   26.7519   72.3836    2.8133 C   0  0  0  0  0  0  0  0  0  0  0  0
   27.9498   72.9041    3.0881 C   0  0  0  0  0  0  0  0  0  0  0  0
   28.1120   73.7516    4.2870 C   0  0  0  0  0  0  0  0  0  0  0  0
   27.0312   74.4857    5.8378 H   0  0  0  0  0  0  0  0  0  0  0  0
   22.5254   70.5319   -2.2371 O   0  0  0  0  0  0  0  0  0  0  0  0
   21.0339   70.5668   -1.6149 P   0  0  2  0  0  0  0  0  0  0  0  0
   20.7466   72.1480   -1.4284 O   0  0  0  0  0  0  0  0  0  0  0  0
   20.8706   69.7558   -0.3621 O   0  0  0  0  0  0  0  0  0  0  0  0
   20.0730   70.1187   -2.8318 O   0  0  0  0  0  0  0  0  0  0  0  0
   18.7718   71.6428   -4.0970 O   0  0  0  0  0  0  0  0  0  0  0  0
   16.4809   68.2442   -4.5992 O   0  0  0  0  0  0  0  0  0  0  0  0
   18.0328   69.2459   -6.7984 O   0  0  0  0  0  0  0  0  0  0  0  0
   17.7388   68.7734   -2.0463 O   0  0  0  0  0  0  0  0  0  0  0  0
   17.6931   68.9874   -4.4450 C   0  0  1  0  0  0  0  0  0  0  0  0
   17.7957   69.9829   -5.6022 C   0  0  1  0  0  0  0  0  0  0  0  0
   17.6616   69.7213   -3.1056 C   0  0  2  0  0  0  0  0  0  0  0  0
   18.9256   70.9939   -5.3647 C   0  0  1  0  0  0  0  0  0  0  0  0
   18.7992   70.7376   -2.9916 C   0  0  1  0  0  0  0  0  0  0  0  0
   16.4947   67.7755   -5.4475 H   0  0  0  0  0  0  0  0  0  0  0  0
   17.3125   68.6109   -6.9365 H   0  0  0  0  0  0  0  0  0  0  0  0
   17.0132   68.1359   -2.1295 H   0  0  0  0  0  0  0  0  0  0  0  0
   17.8052   71.9360   -7.2530 O   0  0  0  0  0  0  0  0  0  0  0  0
   18.9450   72.0902   -6.4276 C   0  0  0  0  0  0  0  0  0  0  0  0
   17.8040   72.6272   -7.9341 H   0  0  0  0  0  0  0  0  0  0  0  0
 25 28  1  0
 25 24  1  0
 25 26  1  1
 25 27  2  0
  1  4  1  0
  1 24  1  0
  1  2  1  6
  1  3  2  0
  6 11  1  0
  6 12  1  0
 29 36  1  0
 29 37  1  0
  9  7  1  1
  7 13  1  0
 10  8  1  1
  8 14  1  0
 37 28  1  6
  4  5  1  0
 33 30  1  6
 30 38  1  0
 34 31  1  6
 31 39  1  0
 35 32  1  1
 32 40  1  0
 41 42  1  0
 41 43  1  0
 15 19  2  0
 16 22  2  0
 12 17  1  6
 17 19  1  0
 17 20  1  0
 18 19  1  0
 18 22  1  0
 18 23  1  0
  9 10  1  0
  9 11  1  0
 10 12  1  0
 11  5  1  6
 33 34  1  0
 33 35  1  0
 34 36  1  0
 35 37  1  0
 36 42  1  6
 20 21  2  0
 21 22  1  0
M  CHG  2   2  -1  26  -1
M  END
>  <COMPND>  (122) 
    8629 

>  <AUTHOR>  (122) 
    GENERATED BY OPEN BABEL 3.1.1

>  <MASTER>  (122) 
        0    0    0    0    0    0    0    0   58    0   58    0

>  <minimizedAffinity>  (122) 
-7.54739

>  <CNNscore>  (122) 
0.7004479766

>  <CNNaffinity>  (122) 
4.4637022018

>  <CNN_VS>  (122) 
3.1265912056

>  <CNNaffinity_variance>  (122) 
0.0482318327

$$$$
123
     RDKit          3D

 43 45  0  0  0  0  0  0  0  0999 V2000
   21.3029   70.3738   -0.6367 P   0  0  2  0  0  0  0  0  0  0  0  0
   21.8052   69.4663    0.6049 O   0  0  0  0  0  0  0  0  0  0  0  0
   22.3145   70.5718   -1.7271 O   0  0  0  0  0  0  0  0  0  0  0  0
   20.7538   71.7238    0.0660 O   0  0  0  0  0  0  0  0  0  0  0  0
   21.6454   72.4800    0.8666 C   0  0  0  0  0  0  0  0  0  0  0  0
   22.4361   71.7192    3.0044 O   0  0  0  0  0  0  0  0  0  0  0  0
   20.1587   73.2690    4.1886 O   0  0  0  0  0  0  0  0  0  0  0  0
   22.2841   74.9269    4.6013 O   0  0  0  0  0  0  0  0  0  0  0  0
   20.9718   73.5816    3.0588 C   0  0  1  0  0  0  0  0  0  0  0  0
   22.3456   74.0331    3.5085 C   0  0  2  0  0  0  0  0  0  0  0  0
   21.2867   72.2797    2.3327 C   0  0  1  0  0  0  0  0  0  0  0  0
   23.0085   72.7143    3.8685 C   0  0  2  0  0  0  0  0  0  0  0  0
   19.9442   74.0851    4.6682 H   0  0  0  0  0  0  0  0  0  0  0  0
   21.8544   75.7503    4.3219 H   0  0  0  0  0  0  0  0  0  0  0  0
   24.8630   73.7272    5.7428 O   0  0  0  0  0  0  0  0  0  0  0  0
   28.4382   72.7762    2.9942 O   0  0  0  0  0  0  0  0  0  0  0  0
   24.4300   72.7434    3.6687 N   0  0  0  0  0  0  0  0  0  0  0  0
   26.6417   73.2527    4.3727 N   0  0  0  0  0  0  0  0  0  0  0  0
   25.2735   73.2742    4.6723 C   0  0  0  0  0  0  0  0  0  0  0  0
   24.9742   72.2489    2.4884 C   0  0  0  0  0  0  0  0  0  0  0  0
   26.2810   72.2368    2.2175 C   0  0  0  0  0  0  0  0  0  0  0  0
   27.2308   72.7732    3.2136 C   0  0  0  0  0  0  0  0  0  0  0  0
   27.2485   73.6177    5.0571 H   0  0  0  0  0  0  0  0  0  0  0  0
   19.9461   69.6302   -1.1049 O   0  0  0  0  0  0  0  0  0  0  0  0
   18.9039   69.9717   -2.2923 P   0  0  2  0  0  0  0  0  0  0  0  0
   18.0814   71.2380   -1.7113 O   0  0  0  0  0  0  0  0  0  0  0  0
   18.0445   68.8134   -2.7089 O   0  0  0  0  0  0  0  0  0  0  0  0
   19.8170   70.5858   -3.4731 O   0  0  0  0  0  0  0  0  0  0  0  0
   20.5741   72.7241   -4.1594 O   0  0  0  0  0  0  0  0  0  0  0  0
   19.1849   71.3208   -7.7859 O   0  0  0  0  0  0  0  0  0  0  0  0
   22.0136   71.5341   -7.3375 O   0  0  0  0  0  0  0  0  0  0  0  0
   17.7376   70.7154   -5.3532 O   0  0  0  0  0  0  0  0  0  0  0  0
   19.7966   71.2188   -6.4972 C   0  0  1  0  0  0  0  0  0  0  0  0
   21.0350   72.1171   -6.4816 C   0  0  1  0  0  0  0  0  0  0  0  0
   18.7956   71.6646   -5.4329 C   0  0  2  0  0  0  0  0  0  0  0  0
   21.5912   72.2691   -5.0594 C   0  0  1  0  0  0  0  0  0  0  0  0
   19.4616   71.8322   -4.0660 C   0  0  1  0  0  0  0  0  0  0  0  0
   19.8151   71.0388   -8.4662 H   0  0  0  0  0  0  0  0  0  0  0  0
   21.6496   71.4432   -8.2321 H   0  0  0  0  0  0  0  0  0  0  0  0
   17.3240   70.6186   -6.2246 H   0  0  0  0  0  0  0  0  0  0  0  0
   23.9496   72.6082   -5.2383 O   0  0  0  0  0  0  0  0  0  0  0  0
   22.7298   73.2848   -4.9962 C   0  0  0  0  0  0  0  0  0  0  0  0
   24.6833   73.2423   -5.2014 H   0  0  0  0  0  0  0  0  0  0  0  0
 25 28  1  0
 25 24  1  0
 25 26  1  1
 25 27  2  0
  1  4  1  0
  1 24  1  0
  1  2  1  1
  1  3  2  0
  6 11  1  0
  6 12  1  0
 29 36  1  0
 29 37  1  0
  9  7  1  1
  7 13  1  0
 10  8  1  1
  8 14  1  0
 37 28  1  6
  4  5  1  0
 33 30  1  6
 30 38  1  0
 34 31  1  6
 31 39  1  0
 35 32  1  1
 32 40  1  0
 41 42  1  0
 41 43  1  0
 15 19  2  0
 16 22  2  0
 12 17  1  6
 17 19  1  0
 17 20  1  0
 18 19  1  0
 18 22  1  0
 18 23  1  0
  9 10  1  0
  9 11  1  0
 10 12  1  0
 11  5  1  6
 33 34  1  0
 33 35  1  0
 34 36  1  0
 35 37  1  0
 36 42  1  6
 20 21  2  0
 21 22  1  0
M  CHG  2   2  -1  26  -1
M  END
>  <COMPND>  (123) 
    8629 

>  <AUTHOR>  (123) 
    GENERATED BY OPEN BABEL 3.1.1

>  <MASTER>  (123) 
        0    0    0    0    0    0    0    0   58    0   58    0

>  <minimizedAffinity>  (123) 
-7.16317

>  <CNNscore>  (123) 
0.6940528154

>  <CNNaffinity>  (123) 
4.2232666016

>  <CNN_VS>  (123) 
2.9311699867

>  <CNNaffinity_variance>  (123) 
0.1020529047

$$$$
124
     RDKit          3D

 43 45  0  0  0  0  0  0  0  0999 V2000
   23.8510   72.1780   -3.0927 P   0  0  2  0  0  0  0  0  0  0  0  0
   23.5032   70.6057   -3.2488 O   0  0  0  0  0  0  0  0  0  0  0  0
   25.1694   72.5962   -3.6744 O   0  0  0  0  0  0  0  0  0  0  0  0
   23.6583   72.4633   -1.5118 O   0  0  0  0  0  0  0  0  0  0  0  0
   24.6773   72.0454   -0.6202 C   0  0  0  0  0  0  0  0  0  0  0  0
   24.8715   70.9115    1.4894 O   0  0  0  0  0  0  0  0  0  0  0  0
   22.1595   69.7697    0.9130 O   0  0  0  0  0  0  0  0  0  0  0  0
   21.5968   71.7832    2.6639 O   0  0  0  0  0  0  0  0  0  0  0  0
   22.6770   71.0637    0.6080 C   0  0  1  0  0  0  0  0  0  0  0  0
   22.7540   71.9083    1.8627 C   0  0  2  0  0  0  0  0  0  0  0  0
   24.1471   70.9063    0.2398 C   0  0  1  0  0  0  0  0  0  0  0  0
   23.9964   71.3546    2.5395 C   0  0  2  0  0  0  0  0  0  0  0  0
   21.2215   69.8446    1.1509 H   0  0  0  0  0  0  0  0  0  0  0  0
   20.8340   72.1494    2.1898 H   0  0  0  0  0  0  0  0  0  0  0  0
   23.2519   72.0939    5.1619 O   0  0  0  0  0  0  0  0  0  0  0  0
   26.6803   75.1589    5.4675 O   0  0  0  0  0  0  0  0  0  0  0  0
   24.6771   72.3428    3.3278 N   0  0  0  0  0  0  0  0  0  0  0  0
   24.9597   73.6193    5.3120 N   0  0  0  0  0  0  0  0  0  0  0  0
   24.2221   72.6408    4.6334 C   0  0  0  0  0  0  0  0  0  0  0  0
   25.7831   73.0046    2.8054 C   0  0  0  0  0  0  0  0  0  0  0  0
   26.4747   73.9361    3.4650 C   0  0  0  0  0  0  0  0  0  0  0  0
   26.0650   74.3061    4.8351 C   0  0  0  0  0  0  0  0  0  0  0  0
   24.6609   73.8436    6.2231 H   0  0  0  0  0  0  0  0  0  0  0  0
   22.5649   72.9020   -3.7520 O   0  0  0  0  0  0  0  0  0  0  0  0
   20.9822   72.6860   -3.5042 P   0  0  2  0  0  0  0  0  0  0  0  0
   20.4329   74.1913   -3.2805 O   0  0  0  0  0  0  0  0  0  0  0  0
   20.6580   71.7362   -2.3877 O   0  0  0  0  0  0  0  0  0  0  0  0
   20.3991   72.2492   -4.9445 O   0  0  0  0  0  0  0  0  0  0  0  0
   19.2656   70.1689   -5.0093 O   0  0  0  0  0  0  0  0  0  0  0  0
   19.8514   70.7277   -9.0585 O   0  0  0  0  0  0  0  0  0  0  0  0
   17.2181   71.0273   -7.9521 O   0  0  0  0  0  0  0  0  0  0  0  0
   21.9169   71.4953   -7.1812 O   0  0  0  0  0  0  0  0  0  0  0  0
   19.5954   71.1326   -7.7109 C   0  0  1  0  0  0  0  0  0  0  0  0
   18.3095   70.4497   -7.2410 C   0  0  1  0  0  0  0  0  0  0  0  0
   20.7752   70.7195   -6.8329 C   0  0  2  0  0  0  0  0  0  0  0  0
   18.1122   70.6205   -5.7288 C   0  0  1  0  0  0  0  0  0  0  0  0
   20.4569   70.8828   -5.3456 C   0  0  1  0  0  0  0  0  0  0  0  0
   19.1062   70.9874   -9.6213 H   0  0  0  0  0  0  0  0  0  0  0  0
   17.3552   70.9130   -8.9057 H   0  0  0  0  0  0  0  0  0  0  0  0
   22.1082   71.3831   -8.1250 H   0  0  0  0  0  0  0  0  0  0  0  0
   17.4087   68.7578   -4.4081 O   0  0  0  0  0  0  0  0  0  0  0  0
   16.9213   69.8157   -5.2128 C   0  0  0  0  0  0  0  0  0  0  0  0
   16.6617   68.2371   -4.0725 H   0  0  0  0  0  0  0  0  0  0  0  0
 25 28  1  0
 25 24  1  0
 25 26  1  1
 25 27  2  0
  1  4  1  0
  1 24  1  0
  1  2  1  1
  1  3  2  0
  6 11  1  0
  6 12  1  0
 29 36  1  0
 29 37  1  0
  9  7  1  1
  7 13  1  0
 10  8  1  1
  8 14  1  0
 37 28  1  6
  4  5  1  0
 33 30  1  6
 30 38  1  0
 34 31  1  6
 31 39  1  0
 35 32  1  6
 32 40  1  0
 41 42  1  0
 41 43  1  0
 15 19  2  0
 16 22  2  0
 12 17  1  6
 17 19  1  0
 17 20  1  0
 18 19  1  0
 18 22  1  0
 18 23  1  0
  9 10  1  0
  9 11  1  0
 10 12  1  0
 11  5  1  6
 33 34  1  0
 33 35  1  0
 34 36  1  0
 35 37  1  0
 36 42  1  1
 20 21  2  0
 21 22  1  0
M  CHG  2   2  -1  26  -1
M  END
>  <COMPND>  (124) 
    8629 

>  <AUTHOR>  (124) 
    GENERATED BY OPEN BABEL 3.1.1

>  <MASTER>  (124) 
        0    0    0    0    0    0    0    0   58    0   58    0

>  <minimizedAffinity>  (124) 
-7.63200

>  <CNNscore>  (124) 
0.5689689517

>  <CNNaffinity>  (124) 
4.2727408409

>  <CNN_VS>  (124) 
2.4310569763

>  <CNNaffinity_variance>  (124) 
0.0697199479

$$$$
125
     RDKit          3D

 43 45  0  0  0  0  0  0  0  0999 V2000
   21.0200   70.5766   -0.5759 P   0  0  2  0  0  0  0  0  0  0  0  0
   21.8114   69.5828    0.4258 O   0  0  0  0  0  0  0  0  0  0  0  0
   20.6692   71.9148    0.0052 O   0  0  0  0  0  0  0  0  0  0  0  0
   19.7725   69.6887   -1.0986 O   0  0  0  0  0  0  0  0  0  0  0  0
   19.3930   69.7911   -2.4600 C   0  0  0  0  0  0  0  0  0  0  0  0
   17.9651   71.2302   -3.7499 O   0  0  0  0  0  0  0  0  0  0  0  0
   15.6874   70.0512   -2.1965 O   0  0  0  0  0  0  0  0  0  0  0  0
   15.5543   68.7023   -4.5628 O   0  0  0  0  0  0  0  0  0  0  0  0
   16.8831   69.4257   -2.6595 C   0  0  1  0  0  0  0  0  0  0  0  0
   16.8128   69.1993   -4.1553 C   0  0  2  0  0  0  0  0  0  0  0  0
   18.0168   70.4370   -2.5439 C   0  0  1  0  0  0  0  0  0  0  0  0
   17.0959   70.5898   -4.6981 C   0  0  2  0  0  0  0  0  0  0  0  0
   14.9492   69.4245   -2.2605 H   0  0  0  0  0  0  0  0  0  0  0  0
   15.4212   67.8159   -4.1922 H   0  0  0  0  0  0  0  0  0  0  0  0
   15.7429   70.6472   -7.1769 O   0  0  0  0  0  0  0  0  0  0  0  0
   19.6923   70.4551   -9.5447 O   0  0  0  0  0  0  0  0  0  0  0  0
   17.7458   70.5563   -5.9779 N   0  0  0  0  0  0  0  0  0  0  0  0
   17.7105   70.5517   -8.3539 N   0  0  0  0  0  0  0  0  0  0  0  0
   16.9742   70.5886   -7.1629 C   0  0  0  0  0  0  0  0  0  0  0  0
   19.1331   70.4924   -6.0492 C   0  0  0  0  0  0  0  0  0  0  0  0
   19.8201   70.4566   -7.1929 C   0  0  0  0  0  0  0  0  0  0  0  0
   19.0895   70.4868   -8.4764 C   0  0  0  0  0  0  0  0  0  0  0  0
   17.1941   70.5728   -9.1921 H   0  0  0  0  0  0  0  0  0  0  0  0
   21.9892   70.6376   -1.8682 O   0  0  0  0  0  0  0  0  0  0  0  0
   23.1448   71.6903   -2.2797 P   0  0  2  0  0  0  0  0  0  0  0  0
   24.3427   70.7391   -2.8066 O   0  0  0  0  0  0  0  0  0  0  0  0
   23.5401   72.6316   -1.1789 O   0  0  0  0  0  0  0  0  0  0  0  0
   22.5839   72.4137   -3.6090 O   0  0  0  0  0  0  0  0  0  0  0  0
   22.8365   74.5595   -4.5828 O   0  0  0  0  0  0  0  0  0  0  0  0
   18.7587   74.1015   -5.0441 O   0  0  0  0  0  0  0  0  0  0  0  0
   20.4743   73.9246   -7.3406 O   0  0  0  0  0  0  0  0  0  0  0  0
   20.0557   73.1487   -2.6379 O   0  0  0  0  0  0  0  0  0  0  0  0
   20.1206   73.6682   -4.9890 C   0  0  1  0  0  0  0  0  0  0  0  0
   20.9045   74.4113   -6.0724 C   0  0  1  0  0  0  0  0  0  0  0  0
   20.6879   73.9799   -3.6054 C   0  0  2  0  0  0  0  0  0  0  0  0
   22.4156   74.2025   -5.9045 C   0  0  1  0  0  0  0  0  0  0  0  0
   22.2047   73.7867   -3.5603 C   0  0  1  0  0  0  0  0  0  0  0  0
   18.3924   73.9060   -5.9199 H   0  0  0  0  0  0  0  0  0  0  0  0
   19.5184   74.0620   -7.4336 H   0  0  0  0  0  0  0  0  0  0  0  0
   19.0960   73.2805   -2.6763 H   0  0  0  0  0  0  0  0  0  0  0  0
   24.4829   75.3357   -6.2929 O   0  0  0  0  0  0  0  0  0  0  0  0
   23.2229   75.0600   -6.8766 C   0  0  0  0  0  0  0  0  0  0  0  0
   25.0078   75.8806   -6.9006 H   0  0  0  0  0  0  0  0  0  0  0  0
 25 28  1  0
 25 24  1  0
 25 26  1  6
 25 27  2  0
  1  4  1  0
  1 24  1  0
  1  2  1  1
  1  3  2  0
  6 11  1  0
  6 12  1  0
 29 36  1  0
 29 37  1  0
  9  7  1  6
  7 13  1  0
 10  8  1  1
  8 14  1  0
 37 28  1  6
  4  5  1  0
 33 30  1  1
 30 38  1  0
 34 31  1  6
 31 39  1  0
 35 32  1  1
 32 40  1  0
 41 42  1  0
 41 43  1  0
 15 19  2  0
 16 22  2  0
 12 17  1  6
 17 19  1  0
 17 20  1  0
 18 19  1  0
 18 22  1  0
 18 23  1  0
  9 10  1  0
  9 11  1  0
 10 12  1  0
 11  5  1  6
 33 34  1  0
 33 35  1  0
 34 36  1  0
 35 37  1  0
 36 42  1  6
 20 21  2  0
 21 22  1  0
M  CHG  2   2  -1  26  -1
M  END
>  <COMPND>  (125) 
    8629 

>  <AUTHOR>  (125) 
    GENERATED BY OPEN BABEL 3.1.1

>  <MASTER>  (125) 
        0    0    0    0    0    0    0    0   58    0   58    0

>  <minimizedAffinity>  (125) 
-6.65363

>  <CNNscore>  (125) 
0.5559551716

>  <CNNaffinity>  (125) 
4.2664728165

>  <CNN_VS>  (125) 
2.3719675541

>  <CNNaffinity_variance>  (125) 
0.4216139317

$$$$
126
     RDKit          3D

 43 45  0  0  0  0  0  0  0  0999 V2000
   23.8734   72.7806   -2.9633 P   0  0  2  0  0  0  0  0  0  0  0  0
   23.9490   74.3895   -3.1156 O   0  0  0  0  0  0  0  0  0  0  0  0
   25.0419   72.0341   -3.5366 O   0  0  0  0  0  0  0  0  0  0  0  0
   22.4261   72.3998   -3.5783 O   0  0  0  0  0  0  0  0  0  0  0  0
   21.8025   73.3187   -4.4584 C   0  0  0  0  0  0  0  0  0  0  0  0
   21.0865   71.2792   -5.5080 O   0  0  0  0  0  0  0  0  0  0  0  0
   20.5900   72.9343   -7.9585 O   0  0  0  0  0  0  0  0  0  0  0  0
   18.0850   72.6419   -6.9212 O   0  0  0  0  0  0  0  0  0  0  0  0
   20.4077   73.2775   -6.5858 C   0  0  1  0  0  0  0  0  0  0  0  0
   19.1800   72.5868   -6.0297 C   0  0  2  0  0  0  0  0  0  0  0  0
   21.5289   72.6258   -5.7863 C   0  0  1  0  0  0  0  0  0  0  0  0
   19.6863   71.1710   -5.8125 C   0  0  2  0  0  0  0  0  0  0  0  0
   19.8857   73.3396   -8.4893 H   0  0  0  0  0  0  0  0  0  0  0  0
   17.7996   73.5628   -7.0265 H   0  0  0  0  0  0  0  0  0  0  0  0
   17.2748   69.7208   -6.0565 O   0  0  0  0  0  0  0  0  0  0  0  0
   17.2274   68.6888   -1.5649 O   0  0  0  0  0  0  0  0  0  0  0  0
   19.0218   70.5128   -4.7231 N   0  0  0  0  0  0  0  0  0  0  0  0
   17.2533   69.2079   -3.8199 N   0  0  0  0  0  0  0  0  0  0  0  0
   17.8148   69.8120   -4.9520 C   0  0  0  0  0  0  0  0  0  0  0  0
   19.5673   70.5658   -3.4450 C   0  0  0  0  0  0  0  0  0  0  0  0
   19.0187   69.9855   -2.3757 C   0  0  0  0  0  0  0  0  0  0  0  0
   17.7566   69.2334   -2.5288 C   0  0  0  0  0  0  0  0  0  0  0  0
   16.4119   68.7145   -3.9552 H   0  0  0  0  0  0  0  0  0  0  0  0
   23.6582   72.5757   -1.3743 O   0  0  0  0  0  0  0  0  0  0  0  0
   23.4939   71.2327   -0.4899 P   0  0  2  0  0  0  0  0  0  0  0  0
   24.9679   70.5681   -0.5470 O   0  0  0  0  0  0  0  0  0  0  0  0
   22.3879   70.3263   -0.9470 O   0  0  0  0  0  0  0  0  0  0  0  0
   23.3427   71.7593    1.0283 O   0  0  0  0  0  0  0  0  0  0  0  0
   22.5567   73.7703    2.0053 O   0  0  0  0  0  0  0  0  0  0  0  0
   25.9058   73.1658    4.3437 O   0  0  0  0  0  0  0  0  0  0  0  0
   23.2970   72.7394    5.4662 O   0  0  0  0  0  0  0  0  0  0  0  0
   25.9897   72.5537    1.5157 O   0  0  0  0  0  0  0  0  0  0  0  0
   24.7638   72.7737    3.5773 C   0  0  1  0  0  0  0  0  0  0  0  0
   23.5202   73.3918    4.2193 C   0  0  1  0  0  0  0  0  0  0  0  0
   24.9313   73.2702    2.1424 C   0  0  2  0  0  0  0  0  0  0  0  0
   22.2936   73.2400    3.3096 C   0  0  1  0  0  0  0  0  0  0  0  0
   23.6391   73.1186    1.3378 C   0  0  1  0  0  0  0  0  0  0  0  0
   25.8061   72.8532    5.2558 H   0  0  0  0  0  0  0  0  0  0  0  0
   24.0790   72.8423    6.0310 H   0  0  0  0  0  0  0  0  0  0  0  0
   26.8021   72.6579    2.0344 H   0  0  0  0  0  0  0  0  0  0  0  0
   20.4983   73.2049    4.8859 O   0  0  0  0  0  0  0  0  0  0  0  0
   21.0791   73.9860    3.8579 C   0  0  0  0  0  0  0  0  0  0  0  0
   19.7243   73.6675    5.2445 H   0  0  0  0  0  0  0  0  0  0  0  0
 25 28  1  0
 25 24  1  0
 25 26  1  1
 25 27  2  0
  1  4  1  0
  1 24  1  0
  1  2  1  1
  1  3  2  0
  6 11  1  0
  6 12  1  0
 29 36  1  0
 29 37  1  0
  9  7  1  6
  7 13  1  0
 10  8  1  6
  8 14  1  0
 37 28  1  1
  4  5  1  0
 33 30  1  1
 30 38  1  0
 34 31  1  1
 31 39  1  0
 35 32  1  6
 32 40  1  0
 41 42  1  0
 41 43  1  0
 15 19  2  0
 16 22  2  0
 12 17  1  1
 17 19  1  0
 17 20  1  0
 18 19  1  0
 18 22  1  0
 18 23  1  0
  9 10  1  0
  9 11  1  0
 10 12  1  0
 11  5  1  1
 33 34  1  0
 33 35  1  0
 34 36  1  0
 35 37  1  0
 36 42  1  1
 20 21  2  0
 21 22  1  0
M  CHG  2   2  -1  26  -1
M  END
>  <COMPND>  (126) 
    8629 

>  <AUTHOR>  (126) 
    GENERATED BY OPEN BABEL 3.1.1

>  <MASTER>  (126) 
        0    0    0    0    0    0    0    0   58    0   58    0

>  <minimizedAffinity>  (126) 
-6.96212

>  <CNNscore>  (126) 
0.5524607301

>  <CNNaffinity>  (126) 
4.2009739876

>  <CNN_VS>  (126) 
2.3208732605

>  <CNNaffinity_variance>  (126) 
0.1584820449

$$$$
127
     RDKit          3D

 43 45  0  0  0  0  0  0  0  0999 V2000
   20.8019   70.2963   -1.1562 P   0  0  2  0  0  0  0  0  0  0  0  0
   21.7976   69.7313   -2.2994 O   0  0  0  0  0  0  0  0  0  0  0  0
   21.2281   70.0095    0.2536 O   0  0  0  0  0  0  0  0  0  0  0  0
   19.3523   69.7184   -1.5834 O   0  0  0  0  0  0  0  0  0  0  0  0
   18.9551   69.8244   -2.9394 C   0  0  0  0  0  0  0  0  0  0  0  0
   16.8848   69.0848   -1.9694 O   0  0  0  0  0  0  0  0  0  0  0  0
   16.0397   68.3935   -4.7620 O   0  0  0  0  0  0  0  0  0  0  0  0
   14.7678   70.7660   -4.3263 O   0  0  0  0  0  0  0  0  0  0  0  0
   16.8348   69.4860   -4.3045 C   0  0  1  0  0  0  0  0  0  0  0  0
   15.9649   70.5180   -3.6176 C   0  0  2  0  0  0  0  0  0  0  0  0
   17.7025   68.9863   -3.1560 C   0  0  1  0  0  0  0  0  0  0  0  0
   15.7200   69.8731   -2.2640 C   0  0  2  0  0  0  0  0  0  0  0  0
   15.4772   68.6883   -5.4959 H   0  0  0  0  0  0  0  0  0  0  0  0
   14.9764   71.1765   -5.1800 H   0  0  0  0  0  0  0  0  0  0  0  0
   13.5901   69.8376   -0.4092 O   0  0  0  0  0  0  0  0  0  0  0  0
   15.1172   73.6432    1.6948 O   0  0  0  0  0  0  0  0  0  0  0  0
   15.5368   70.8422   -1.2207 N   0  0  0  0  0  0  0  0  0  0  0  0
   14.3523   71.7324    0.6370 N   0  0  0  0  0  0  0  0  0  0  0  0
   14.4332   70.7345   -0.3425 C   0  0  0  0  0  0  0  0  0  0  0  0
   16.4455   71.8848   -1.0759 C   0  0  0  0  0  0  0  0  0  0  0  0
   16.3534   72.8292   -0.1373 C   0  0  0  0  0  0  0  0  0  0  0  0
   15.2297   72.7895    0.8206 C   0  0  0  0  0  0  0  0  0  0  0  0
   13.5915   71.6780    1.2599 H   0  0  0  0  0  0  0  0  0  0  0  0
   20.6876   71.8676   -1.5180 O   0  0  0  0  0  0  0  0  0  0  0  0
   21.8286   72.9844   -1.7712 P   0  0  2  0  0  0  0  0  0  0  0  0
   23.2058   72.1630   -1.5566 O   0  0  0  0  0  0  0  0  0  0  0  0
   21.6956   74.2064   -0.9093 O   0  0  0  0  0  0  0  0  0  0  0  0
   21.7704   73.2753   -3.3577 O   0  0  0  0  0  0  0  0  0  0  0  0
   20.7481   71.9203   -5.0116 O   0  0  0  0  0  0  0  0  0  0  0  0
   23.8120   73.5203   -7.2707 O   0  0  0  0  0  0  0  0  0  0  0  0
   21.1150   74.4032   -7.7115 O   0  0  0  0  0  0  0  0  0  0  0  0
   24.2831   72.7905   -4.5094 O   0  0  0  0  0  0  0  0  0  0  0  0
   22.7999   73.5225   -6.2603 C   0  0  1  0  0  0  0  0  0  0  0  0
   21.4509   73.2587   -6.9322 C   0  0  1  0  0  0  0  0  0  0  0  0
   23.1134   72.4322   -5.2374 C   0  0  2  0  0  0  0  0  0  0  0  0
   20.3582   72.9818   -5.8909 C   0  0  1  0  0  0  0  0  0  0  0  0
   21.9427   72.2025   -4.2800 C   0  0  1  0  0  0  0  0  0  0  0  0
   23.6191   74.2107   -7.9232 H   0  0  0  0  0  0  0  0  0  0  0  0
   21.8132   74.5674   -8.3647 H   0  0  0  0  0  0  0  0  0  0  0  0
   25.0170   72.9329   -5.1266 H   0  0  0  0  0  0  0  0  0  0  0  0
   18.3789   73.7231   -7.0052 O   0  0  0  0  0  0  0  0  0  0  0  0
   19.0419   72.5615   -6.5411 C   0  0  0  0  0  0  0  0  0  0  0  0
   17.5395   73.4709   -7.4218 H   0  0  0  0  0  0  0  0  0  0  0  0
 25 28  1  0
 25 24  1  0
 25 26  1  6
 25 27  2  0
  1  4  1  0
  1 24  1  0
  1  2  1  6
  1  3  2  0
  6 11  1  0
  6 12  1  0
 29 36  1  0
 29 37  1  0
  9  7  1  1
  7 13  1  0
 10  8  1  6
  8 14  1  0
 37 28  1  6
  4  5  1  0
 33 30  1  6
 30 38  1  0
 34 31  1  1
 31 39  1  0
 35 32  1  1
 32 40  1  0
 41 42  1  0
 41 43  1  0
 15 19  2  0
 16 22  2  0
 12 17  1  1
 17 19  1  0
 17 20  1  0
 18 19  1  0
 18 22  1  0
 18 23  1  0
  9 10  1  0
  9 11  1  0
 10 12  1  0
 11  5  1  1
 33 34  1  0
 33 35  1  0
 34 36  1  0
 35 37  1  0
 36 42  1  6
 20 21  2  0
 21 22  1  0
M  CHG  2   2  -1  26  -1
M  END
>  <COMPND>  (127) 
    8629 

>  <AUTHOR>  (127) 
    GENERATED BY OPEN BABEL 3.1.1

>  <MASTER>  (127) 
        0    0    0    0    0    0    0    0   58    0   58    0

>  <minimizedAffinity>  (127) 
-6.79807

>  <CNNscore>  (127) 
0.5395618677

>  <CNNaffinity>  (127) 
4.0026292801

>  <CNN_VS>  (127) 
2.1596660614

>  <CNNaffinity_variance>  (127) 
0.3943063021

$$$$
128
     RDKit          3D

 43 45  0  0  0  0  0  0  0  0999 V2000
   18.2909   70.0798   -2.5531 P   0  0  2  0  0  0  0  0  0  0  0  0
   17.7915   68.6382   -2.0147 O   0  0  0  0  0  0  0  0  0  0  0  0
   17.4534   71.2450   -2.1146 O   0  0  0  0  0  0  0  0  0  0  0  0
   18.4239   69.8724   -4.1522 O   0  0  0  0  0  0  0  0  0  0  0  0
   17.4387   69.1021   -4.8184 C   0  0  0  0  0  0  0  0  0  0  0  0
   17.2903   71.2937   -5.7924 O   0  0  0  0  0  0  0  0  0  0  0  0
   15.3512   70.0929   -7.7389 O   0  0  0  0  0  0  0  0  0  0  0  0
   17.6590   70.1989   -9.1878 O   0  0  0  0  0  0  0  0  0  0  0  0
   16.5166   69.5147   -7.1535 C   0  0  1  0  0  0  0  0  0  0  0  0
   17.7651   70.0973   -7.7824 C   0  0  2  0  0  0  0  0  0  0  0  0
   16.6193   70.0167   -5.7186 C   0  0  1  0  0  0  0  0  0  0  0  0
   17.8566   71.4533   -7.1034 C   0  0  2  0  0  0  0  0  0  0  0  0
   15.2641   69.7866   -8.6557 H   0  0  0  0  0  0  0  0  0  0  0  0
   17.6037   69.3105   -9.5731 H   0  0  0  0  0  0  0  0  0  0  0  0
   18.5918   74.1070   -6.4746 O   0  0  0  0  0  0  0  0  0  0  0  0
   23.0851   73.0937   -6.6330 O   0  0  0  0  0  0  0  0  0  0  0  0
   19.2114   71.9106   -6.9736 N   0  0  0  0  0  0  0  0  0  0  0  0
   20.8285   73.6002   -6.5538 N   0  0  0  0  0  0  0  0  0  0  0  0
   19.4726   73.2638   -6.6560 C   0  0  0  0  0  0  0  0  0  0  0  0
   20.2639   71.0211   -7.1604 C   0  0  0  0  0  0  0  0  0  0  0  0
   21.5514   71.3580   -7.0606 C   0  0  0  0  0  0  0  0  0  0  0  0
   21.9104   72.7526   -6.7317 C   0  0  0  0  0  0  0  0  0  0  0  0
   21.0346   74.5377   -6.3337 H   0  0  0  0  0  0  0  0  0  0  0  0
   19.8308   70.1366   -2.0648 O   0  0  0  0  0  0  0  0  0  0  0  0
   20.5357   70.9668   -0.8703 P   0  0  2  0  0  0  0  0  0  0  0  0
   21.1035   69.8062    0.1034 O   0  0  0  0  0  0  0  0  0  0  0  0
   19.6329   71.9567   -0.1928 O   0  0  0  0  0  0  0  0  0  0  0  0
   21.8520   71.6138   -1.5439 O   0  0  0  0  0  0  0  0  0  0  0  0
   21.2534   72.9753   -3.3890 O   0  0  0  0  0  0  0  0  0  0  0  0
   25.3575   73.0172   -3.8422 O   0  0  0  0  0  0  0  0  0  0  0  0
   24.0101   75.3746   -2.9066 O   0  0  0  0  0  0  0  0  0  0  0  0
   24.0226   70.5910   -2.9990 O   0  0  0  0  0  0  0  0  0  0  0  0
   24.1273   72.9946   -3.1131 C   0  0  1  0  0  0  0  0  0  0  0  0
   23.3349   74.2536   -3.4704 C   0  0  1  0  0  0  0  0  0  0  0  0
   23.3439   71.7399   -3.4947 C   0  0  2  0  0  0  0  0  0  0  0  0
   21.8974   74.1729   -2.9390 C   0  0  1  0  0  0  0  0  0  0  0  0
   21.9122   71.7829   -2.9577 C   0  0  1  0  0  0  0  0  0  0  0  0
   25.8599   73.8112   -3.6041 H   0  0  0  0  0  0  0  0  0  0  0  0
   24.9166   75.4138   -3.2499 H   0  0  0  0  0  0  0  0  0  0  0  0
   24.9275   70.5752   -3.3464 H   0  0  0  0  0  0  0  0  0  0  0  0
   19.7605   74.8562   -3.7609 O   0  0  0  0  0  0  0  0  0  0  0  0
   21.0440   75.3453   -3.4179 C   0  0  0  0  0  0  0  0  0  0  0  0
   19.2062   75.5915   -4.0672 H   0  0  0  0  0  0  0  0  0  0  0  0
 25 28  1  0
 25 24  1  0
 25 26  1  1
 25 27  2  0
  1  4  1  0
  1 24  1  0
  1  2  1  1
  1  3  2  0
  6 11  1  0
  6 12  1  0
 29 36  1  0
 29 37  1  0
  9  7  1  6
  7 13  1  0
 10  8  1  6
  8 14  1  0
 37 28  1  1
  4  5  1  0
 33 30  1  6
 30 38  1  0
 34 31  1  1
 31 39  1  0
 35 32  1  1
 32 40  1  0
 41 42  1  0
 41 43  1  0
 15 19  2  0
 16 22  2  0
 12 17  1  1
 17 19  1  0
 17 20  1  0
 18 19  1  0
 18 22  1  0
 18 23  1  0
  9 10  1  0
  9 11  1  0
 10 12  1  0
 11  5  1  1
 33 34  1  0
 33 35  1  0
 34 36  1  0
 35 37  1  0
 36 42  1  6
 20 21  2  0
 21 22  1  0
M  CHG  2   2  -1  26  -1
M  END
>  <COMPND>  (128) 
    8629 

>  <AUTHOR>  (128) 
    GENERATED BY OPEN BABEL 3.1.1

>  <MASTER>  (128) 
        0    0    0    0    0    0    0    0   58    0   58    0

>  <minimizedAffinity>  (128) 
-7.27866

>  <CNNscore>  (128) 
0.4585539103

>  <CNNaffinity>  (128) 
4.0783171654

>  <CNN_VS>  (128) 
1.8701282740

>  <CNNaffinity_variance>  (128) 
0.8881157637

$$$$
129
     RDKit          3D

 43 45  0  0  0  0  0  0  0  0999 V2000
   22.0031   72.5446   -3.3921 P   0  0  2  0  0  0  0  0  0  0  0  0
   21.9762   73.8505   -2.4374 O   0  0  0  0  0  0  0  0  0  0  0  0
   23.3051   72.3019   -4.0973 O   0  0  0  0  0  0  0  0  0  0  0  0
   20.7114   72.7353   -4.3475 O   0  0  0  0  0  0  0  0  0  0  0  0
   20.8528   72.4812   -5.7343 C   0  0  0  0  0  0  0  0  0  0  0  0
   19.6619   70.4638   -5.1996 O   0  0  0  0  0  0  0  0  0  0  0  0
   20.9280   69.2888   -7.6506 O   0  0  0  0  0  0  0  0  0  0  0  0
   18.4143   69.8988   -8.5143 O   0  0  0  0  0  0  0  0  0  0  0  0
   20.4646   70.6189   -7.4239 C   0  0  1  0  0  0  0  0  0  0  0  0
   18.9509   70.6603   -7.4519 C   0  0  2  0  0  0  0  0  0  0  0  0
   20.7659   70.9802   -5.9747 C   0  0  1  0  0  0  0  0  0  0  0  0
   18.5950   70.0934   -6.0880 C   0  0  2  0  0  0  0  0  0  0  0  0
   20.7468   69.0358   -8.5699 H   0  0  0  0  0  0  0  0  0  0  0  0
   18.6683   70.2996   -9.3602 H   0  0  0  0  0  0  0  0  0  0  0  0
   16.7597   68.6317   -4.5154 O   0  0  0  0  0  0  0  0  0  0  0  0
   13.8906   72.2245   -4.1969 O   0  0  0  0  0  0  0  0  0  0  0  0
   17.3605   70.6222   -5.5803 N   0  0  0  0  0  0  0  0  0  0  0  0
   15.3327   70.4219   -4.3579 N   0  0  0  0  0  0  0  0  0  0  0  0
   16.5093   69.8045   -4.8011 C   0  0  0  0  0  0  0  0  0  0  0  0
   17.0050   71.9381   -5.8557 C   0  0  0  0  0  0  0  0  0  0  0  0
   15.8788   72.5116   -5.4267 C   0  0  0  0  0  0  0  0  0  0  0  0
   14.9344   71.7259   -4.6064 C   0  0  0  0  0  0  0  0  0  0  0  0
   14.7241   69.8713   -3.8137 H   0  0  0  0  0  0  0  0  0  0  0  0
   21.5460   71.3566   -2.3958 O   0  0  0  0  0  0  0  0  0  0  0  0
   20.5303   71.3575   -1.1383 P   0  0  2  0  0  0  0  0  0  0  0  0
   20.2675   69.7834   -0.8724 O   0  0  0  0  0  0  0  0  0  0  0  0
   19.2837   72.1656   -1.3548 O   0  0  0  0  0  0  0  0  0  0  0  0
   21.4298   71.8377    0.1129 O   0  0  0  0  0  0  0  0  0  0  0  0
   23.3554   70.4574    0.1695 O   0  0  0  0  0  0  0  0  0  0  0  0
   24.0503   72.6992    3.5669 O   0  0  0  0  0  0  0  0  0  0  0  0
   25.6367   73.1570    1.2171 O   0  0  0  0  0  0  0  0  0  0  0  0
   21.3577   71.8574    2.9182 O   0  0  0  0  0  0  0  0  0  0  0  0
   23.5870   72.4615    2.2349 C   0  0  1  0  0  0  0  0  0  0  0  0
   24.7812   72.0294    1.3818 C   0  0  1  0  0  0  0  0  0  0  0  0
   22.5230   71.3659    2.2646 C   0  0  2  0  0  0  0  0  0  0  0  0
   24.3238   71.5016    0.0153 C   0  0  1  0  0  0  0  0  0  0  0  0
   22.1754   70.8778    0.8571 C   0  0  1  0  0  0  0  0  0  0  0  0
   24.7258   73.3942    3.5552 H   0  0  0  0  0  0  0  0  0  0  0  0
   25.9180   73.4808    2.0872 H   0  0  0  0  0  0  0  0  0  0  0  0
   21.5909   72.1630    3.8082 H   0  0  0  0  0  0  0  0  0  0  0  0
   25.1541   70.9883   -2.1655 O   0  0  0  0  0  0  0  0  0  0  0  0
   25.4831   70.9194   -0.7903 C   0  0  0  0  0  0  0  0  0  0  0  0
   25.8832   70.6215   -2.6905 H   0  0  0  0  0  0  0  0  0  0  0  0
 25 28  1  0
 25 24  1  0
 25 26  1  1
 25 27  2  0
  1  4  1  0
  1 24  1  0
  1  2  1  1
  1  3  2  0
  6 11  1  0
  6 12  1  0
 29 36  1  0
 29 37  1  0
  9  7  1  1
  7 13  1  0
 10  8  1  6
  8 14  1  0
 37 28  1  6
  4  5  1  0
 33 30  1  1
 30 38  1  0
 34 31  1  6
 31 39  1  0
 35 32  1  6
 32 40  1  0
 41 42  1  0
 41 43  1  0
 15 19  2  0
 16 22  2  0
 12 17  1  1
 17 19  1  0
 17 20  1  0
 18 19  1  0
 18 22  1  0
 18 23  1  0
  9 10  1  0
  9 11  1  0
 10 12  1  0
 11  5  1  6
 33 34  1  0
 33 35  1  0
 34 36  1  0
 35 37  1  0
 36 42  1  1
 20 21  2  0
 21 22  1  0
M  CHG  2   2  -1  26  -1
M  END
>  <COMPND>  (129) 
    8629 

>  <AUTHOR>  (129) 
    GENERATED BY OPEN BABEL 3.1.1

>  <MASTER>  (129) 
        0    0    0    0    0    0    0    0   58    0   58    0

>  <minimizedAffinity>  (129) 
-6.78356

>  <CNNscore>  (129) 
0.4547747970

>  <CNNaffinity>  (129) 
4.3137693405

>  <CNN_VS>  (129) 
1.9617935419

>  <CNNaffinity_variance>  (129) 
0.1433042288

$$$$
130
     RDKit          3D

 43 45  0  0  0  0  0  0  0  0999 V2000
   24.0364   71.5647   -1.8814 P   0  0  2  0  0  0  0  0  0  0  0  0
   25.1721   70.9414   -2.8505 O   0  0  0  0  0  0  0  0  0  0  0  0
   22.8921   70.6445   -1.5725 O   0  0  0  0  0  0  0  0  0  0  0  0
   23.6414   72.9622   -2.5948 O   0  0  0  0  0  0  0  0  0  0  0  0
   22.3033   73.1485   -3.0223 C   0  0  0  0  0  0  0  0  0  0  0  0
   21.5945   71.3509   -4.4506 O   0  0  0  0  0  0  0  0  0  0  0  0
   21.5830   73.3678   -6.6695 O   0  0  0  0  0  0  0  0  0  0  0  0
   18.9397   73.1758   -6.0270 O   0  0  0  0  0  0  0  0  0  0  0  0
   21.2309   73.5344   -5.2970 C   0  0  1  0  0  0  0  0  0  0  0  0
   19.8873   72.8940   -5.0173 C   0  0  2  0  0  0  0  0  0  0  0  0
   22.1727   72.6745   -4.4633 C   0  0  1  0  0  0  0  0  0  0  0  0
   20.2487   71.4200   -4.9497 C   0  0  2  0  0  0  0  0  0  0  0  0
   20.9952   73.9077   -7.2217 H   0  0  0  0  0  0  0  0  0  0  0  0
   18.7427   74.1255   -6.0298 H   0  0  0  0  0  0  0  0  0  0  0  0
   17.8380   70.1805   -5.7435 O   0  0  0  0  0  0  0  0  0  0  0  0
   17.0202   68.6264   -1.4824 O   0  0  0  0  0  0  0  0  0  0  0  0
   19.3863   70.6845   -4.0684 N   0  0  0  0  0  0  0  0  0  0  0  0
   17.4329   69.4075   -3.6212 N   0  0  0  0  0  0  0  0  0  0  0  0
   18.1980   70.1017   -4.5671 C   0  0  0  0  0  0  0  0  0  0  0  0
   19.7219   70.5467   -2.7260 C   0  0  0  0  0  0  0  0  0  0  0  0
   18.9809   69.8826   -1.8365 C   0  0  0  0  0  0  0  0  0  0  0  0
   17.7236   69.2438   -2.2761 C   0  0  0  0  0  0  0  0  0  0  0  0
   16.6004   68.9935   -3.9457 H   0  0  0  0  0  0  0  0  0  0  0  0
   24.8829   72.0425   -0.5899 O   0  0  0  0  0  0  0  0  0  0  0  0
   24.7489   71.6490    0.9722 P   0  0  2  0  0  0  0  0  0  0  0  0
   26.0550   72.3312    1.6401 O   0  0  0  0  0  0  0  0  0  0  0  0
   24.6217   70.1749    1.2267 O   0  0  0  0  0  0  0  0  0  0  0  0
   23.5084   72.5301    1.5105 O   0  0  0  0  0  0  0  0  0  0  0  0
   22.5708   72.3161    3.6765 O   0  0  0  0  0  0  0  0  0  0  0  0
   19.2488   73.7030    1.6536 O   0  0  0  0  0  0  0  0  0  0  0  0
   20.6257   75.4413    3.4786 O   0  0  0  0  0  0  0  0  0  0  0  0
   21.0423   71.8278    0.3704 O   0  0  0  0  0  0  0  0  0  0  0  0
   20.6437   73.6000    1.9520 C   0  0  1  0  0  0  0  0  0  0  0  0
   20.8574   74.0374    3.4025 C   0  0  1  0  0  0  0  0  0  0  0  0
   21.0907   72.1526    1.7555 C   0  0  2  0  0  0  0  0  0  0  0  0
   22.2778   73.7037    3.8782 C   0  0  1  0  0  0  0  0  0  0  0  0
   22.4981   71.9164    2.3066 C   0  0  1  0  0  0  0  0  0  0  0  0
   18.9587   74.6197    1.7760 H   0  0  0  0  0  0  0  0  0  0  0  0
   19.7257   75.6386    3.1750 H   0  0  0  0  0  0  0  0  0  0  0  0
   20.1462   71.9813    0.0335 H   0  0  0  0  0  0  0  0  0  0  0  0
   21.2033   74.3145    5.9230 O   0  0  0  0  0  0  0  0  0  0  0  0
   22.4635   73.9870    5.3673 C   0  0  0  0  0  0  0  0  0  0  0  0
   21.3061   74.4971    6.8706 H   0  0  0  0  0  0  0  0  0  0  0  0
 25 28  1  0
 25 24  1  0
 25 26  1  1
 25 27  2  0
  1  4  1  0
  1 24  1  0
  1  2  1  6
  1  3  2  0
  6 11  1  0
  6 12  1  0
 29 36  1  0
 29 37  1  0
  9  7  1  6
  7 13  1  0
 10  8  1  6
  8 14  1  0
 37 28  1  6
  4  5  1  0
 33 30  1  1
 30 38  1  0
 34 31  1  6
 31 39  1  0
 35 32  1  6
 32 40  1  0
 41 42  1  0
 41 43  1  0
 15 19  2  0
 16 22  2  0
 12 17  1  1
 17 19  1  0
 17 20  1  0
 18 19  1  0
 18 22  1  0
 18 23  1  0
  9 10  1  0
  9 11  1  0
 10 12  1  0
 11  5  1  1
 33 34  1  0
 33 35  1  0
 34 36  1  0
 35 37  1  0
 36 42  1  1
 20 21  2  0
 21 22  1  0
M  CHG  2   2  -1  26  -1
M  END
>  <COMPND>  (130) 
    8629 

>  <AUTHOR>  (130) 
    GENERATED BY OPEN BABEL 3.1.1

>  <MASTER>  (130) 
        0    0    0    0    0    0    0    0   58    0   58    0

>  <minimizedAffinity>  (130) 
-6.41788

>  <CNNscore>  (130) 
0.4491447210

>  <CNNaffinity>  (130) 
3.9822773933

>  <CNN_VS>  (130) 
1.7886189222

>  <CNNaffinity_variance>  (130) 
0.2120559216

$$$$
131
     RDKit          3D

 43 45  0  0  0  0  0  0  0  0999 V2000
   19.4431   71.7254   -2.0542 P   0  0  2  0  0  0  0  0  0  0  0  0
   19.4340   72.7225   -0.7802 O   0  0  0  0  0  0  0  0  0  0  0  0
   18.1066   71.1470   -2.4159 O   0  0  0  0  0  0  0  0  0  0  0  0
   20.6004   70.6520   -1.6992 O   0  0  0  0  0  0  0  0  0  0  0  0
   21.0736   70.5843   -0.3653 C   0  0  0  0  0  0  0  0  0  0  0  0
   23.1486   70.7860   -1.5601 O   0  0  0  0  0  0  0  0  0  0  0  0
   24.4836   69.9548    0.9929 O   0  0  0  0  0  0  0  0  0  0  0  0
   24.8441   72.6579    0.9864 O   0  0  0  0  0  0  0  0  0  0  0  0
   23.3264   70.7673    0.8029 C   0  0  1  0  0  0  0  0  0  0  0  0
   23.7240   72.1389    0.2988 C   0  0  2  0  0  0  0  0  0  0  0  0
   22.5485   70.2064   -0.3810 C   0  0  1  0  0  0  0  0  0  0  0  0
   24.0136   71.8641   -1.1671 C   0  0  2  0  0  0  0  0  0  0  0  0
   24.9964   70.2934    1.7442 H   0  0  0  0  0  0  0  0  0  0  0  0
   24.6094   72.8159    1.9141 H   0  0  0  0  0  0  0  0  0  0  0  0
   25.0865   72.2328   -3.7538 O   0  0  0  0  0  0  0  0  0  0  0  0
   22.9270   76.2712   -4.2729 O   0  0  0  0  0  0  0  0  0  0  0  0
   23.7481   73.0025   -2.0007 N   0  0  0  0  0  0  0  0  0  0  0  0
   24.0102   74.2432   -4.0102 N   0  0  0  0  0  0  0  0  0  0  0  0
   24.3376   73.0915   -3.2832 C   0  0  0  0  0  0  0  0  0  0  0  0
   22.9111   74.0152   -1.5446 C   0  0  0  0  0  0  0  0  0  0  0  0
   22.6101   75.1076   -2.2497 C   0  0  0  0  0  0  0  0  0  0  0  0
   23.1846   75.2780   -3.5998 C   0  0  0  0  0  0  0  0  0  0  0  0
   24.4096   74.3271   -4.9064 H   0  0  0  0  0  0  0  0  0  0  0  0
   20.1235   72.6232   -3.2135 O   0  0  0  0  0  0  0  0  0  0  0  0
   20.6243   72.2348   -4.7006 P   0  0  2  0  0  0  0  0  0  0  0  0
   21.5368   70.9219   -4.4537 O   0  0  0  0  0  0  0  0  0  0  0  0
   21.3242   73.3483   -5.4246 O   0  0  0  0  0  0  0  0  0  0  0  0
   19.3038   71.6795   -5.4442 O   0  0  0  0  0  0  0  0  0  0  0  0
   18.1362   69.6326   -5.1926 O   0  0  0  0  0  0  0  0  0  0  0  0
   17.7413   70.1199   -9.2739 O   0  0  0  0  0  0  0  0  0  0  0  0
   15.4613   70.5111   -7.5721 O   0  0  0  0  0  0  0  0  0  0  0  0
   20.2175   70.8518   -7.9652 O   0  0  0  0  0  0  0  0  0  0  0  0
   17.8284   70.5501   -7.9127 C   0  0  1  0  0  0  0  0  0  0  0  0
   16.6771   69.9114   -7.1334 C   0  0  1  0  0  0  0  0  0  0  0  0
   19.1745   70.1145   -7.3367 C   0  0  2  0  0  0  0  0  0  0  0  0
   16.8550   70.1080   -5.6219 C   0  0  1  0  0  0  0  0  0  0  0  0
   19.2287   70.3068   -5.8201 C   0  0  1  0  0  0  0  0  0  0  0  0
   16.8892   70.3938   -9.6458 H   0  0  0  0  0  0  0  0  0  0  0  0
   15.3613   70.3802   -8.5281 H   0  0  0  0  0  0  0  0  0  0  0  0
   20.1725   70.7215   -8.9248 H   0  0  0  0  0  0  0  0  0  0  0  0
   15.3898   68.2214   -5.5728 O   0  0  0  0  0  0  0  0  0  0  0  0
   15.8040   69.3454   -4.8183 C   0  0  0  0  0  0  0  0  0  0  0  0
   14.7210   67.7262   -5.0736 H   0  0  0  0  0  0  0  0  0  0  0  0
 25 28  1  0
 25 24  1  0
 25 26  1  1
 25 27  2  0
  1  4  1  0
  1 24  1  0
  1  2  1  1
  1  3  2  0
  6 11  1  0
  6 12  1  0
 29 36  1  0
 29 37  1  0
  9  7  1  6
  7 13  1  0
 10  8  1  1
  8 14  1  0
 37 28  1  6
  4  5  1  0
 33 30  1  6
 30 38  1  0
 34 31  1  6
 31 39  1  0
 35 32  1  6
 32 40  1  0
 41 42  1  0
 41 43  1  0
 15 19  2  0
 16 22  2  0
 12 17  1  6
 17 19  1  0
 17 20  1  0
 18 19  1  0
 18 22  1  0
 18 23  1  0
  9 10  1  0
  9 11  1  0
 10 12  1  0
 11  5  1  1
 33 34  1  0
 33 35  1  0
 34 36  1  0
 35 37  1  0
 36 42  1  1
 20 21  2  0
 21 22  1  0
M  CHG  2   2  -1  26  -1
M  END
>  <COMPND>  (131) 
    8629 

>  <AUTHOR>  (131) 
    GENERATED BY OPEN BABEL 3.1.1

>  <MASTER>  (131) 
        0    0    0    0    0    0    0    0   58    0   58    0

>  <minimizedAffinity>  (131) 
-7.09695

>  <CNNscore>  (131) 
0.4443893731

>  <CNNaffinity>  (131) 
4.1470022202

>  <CNN_VS>  (131) 
1.8428837061

>  <CNNaffinity_variance>  (131) 
0.3896294534

$$$$
132
     RDKit          3D

 43 45  0  0  0  0  0  0  0  0999 V2000
   18.1704   70.0063   -2.5350 P   0  0  2  0  0  0  0  0  0  0  0  0
   17.5944   68.6064   -1.9642 O   0  0  0  0  0  0  0  0  0  0  0  0
   17.3938   71.2241   -2.1282 O   0  0  0  0  0  0  0  0  0  0  0  0
   18.2971   69.7535   -4.1281 O   0  0  0  0  0  0  0  0  0  0  0  0
   17.2639   69.0389   -4.7836 C   0  0  0  0  0  0  0  0  0  0  0  0
   17.2209   71.2477   -5.7286 O   0  0  0  0  0  0  0  0  0  0  0  0
   15.3523   70.1271   -7.7886 O   0  0  0  0  0  0  0  0  0  0  0  0
   17.7322   70.1936   -9.1184 O   0  0  0  0  0  0  0  0  0  0  0  0
   16.4716   69.5099   -7.1550 C   0  0  1  0  0  0  0  0  0  0  0  0
   17.7647   70.0686   -7.7112 C   0  0  2  0  0  0  0  0  0  0  0  0
   16.5147   69.9879   -5.7089 C   0  0  1  0  0  0  0  0  0  0  0  0
   17.8565   71.4116   -7.0069 C   0  0  2  0  0  0  0  0  0  0  0  0
   15.3038   69.8368   -8.7134 H   0  0  0  0  0  0  0  0  0  0  0  0
   17.6737   69.3127   -9.5201 H   0  0  0  0  0  0  0  0  0  0  0  0
   18.6367   74.0625   -6.4221 O   0  0  0  0  0  0  0  0  0  0  0  0
   23.0943   72.9052   -6.2430 O   0  0  0  0  0  0  0  0  0  0  0  0
   19.2142   71.8311   -6.8023 N   0  0  0  0  0  0  0  0  0  0  0  0
   20.8556   73.4841   -6.3332 N   0  0  0  0  0  0  0  0  0  0  0  0
   19.4990   73.1863   -6.5146 C   0  0  0  0  0  0  0  0  0  0  0  0
   20.2465   70.9031   -6.8870 C   0  0  0  0  0  0  0  0  0  0  0  0
   21.5351   71.2034   -6.7127 C   0  0  0  0  0  0  0  0  0  0  0  0
   21.9180   72.5974   -6.4086 C   0  0  0  0  0  0  0  0  0  0  0  0
   21.0779   74.4221   -6.1322 H   0  0  0  0  0  0  0  0  0  0  0  0
   19.7096   69.9942   -2.0416 O   0  0  0  0  0  0  0  0  0  0  0  0
   20.9935   70.8355   -2.5484 P   0  0  2  0  0  0  0  0  0  0  0  0
   20.3313   72.0975   -3.3142 O   0  0  0  0  0  0  0  0  0  0  0  0
   21.9590   70.0429   -3.3811 O   0  0  0  0  0  0  0  0  0  0  0  0
   21.6281   71.4622   -1.2032 O   0  0  0  0  0  0  0  0  0  0  0  0
   21.8945   70.8613    1.0738 O   0  0  0  0  0  0  0  0  0  0  0  0
   20.2609   74.6210    1.5704 O   0  0  0  0  0  0  0  0  0  0  0  0
   23.0440   74.1979    2.1388 O   0  0  0  0  0  0  0  0  0  0  0  0
   19.3082   72.9019   -0.5549 O   0  0  0  0  0  0  0  0  0  0  0  0
   21.0608   73.6218    0.9323 C   0  0  1  0  0  0  0  0  0  0  0  0
   22.1131   73.1391    1.9324 C   0  0  1  0  0  0  0  0  0  0  0  0
   20.1621   72.4657    0.4973 C   0  0  2  0  0  0  0  0  0  0  0  0
   22.8342   71.8865    1.4165 C   0  0  1  0  0  0  0  0  0  0  0  0
   20.9795   71.2530    0.0485 C   0  0  1  0  0  0  0  0  0  0  0  0
   20.8254   75.3582    1.8486 H   0  0  0  0  0  0  0  0  0  0  0  0
   22.5758   74.9829    2.4640 H   0  0  0  0  0  0  0  0  0  0  0  0
   18.7961   73.6697   -0.2582 H   0  0  0  0  0  0  0  0  0  0  0  0
   24.5866   70.3183    1.8394 O   0  0  0  0  0  0  0  0  0  0  0  0
   23.7758   71.2964    2.4640 C   0  0  0  0  0  0  0  0  0  0  0  0
   25.1913   69.9343    2.4941 H   0  0  0  0  0  0  0  0  0  0  0  0
 25 28  1  0
 25 24  1  0
 25 26  1  6
 25 27  2  0
  1  4  1  0
  1 24  1  0
  1  2  1  1
  1  3  2  0
  6 11  1  0
  6 12  1  0
 29 36  1  0
 29 37  1  0
  9  7  1  6
  7 13  1  0
 10  8  1  6
  8 14  1  0
 37 28  1  6
  4  5  1  0
 33 30  1  1
 30 38  1  0
 34 31  1  6
 31 39  1  0
 35 32  1  6
 32 40  1  0
 41 42  1  0
 41 43  1  0
 15 19  2  0
 16 22  2  0
 12 17  1  1
 17 19  1  0
 17 20  1  0
 18 19  1  0
 18 22  1  0
 18 23  1  0
  9 10  1  0
  9 11  1  0
 10 12  1  0
 11  5  1  1
 33 34  1  0
 33 35  1  0
 34 36  1  0
 35 37  1  0
 36 42  1  1
 20 21  2  0
 21 22  1  0
M  CHG  2   2  -1  26  -1
M  END
>  <COMPND>  (132) 
    8629 

>  <AUTHOR>  (132) 
    GENERATED BY OPEN BABEL 3.1.1

>  <MASTER>  (132) 
        0    0    0    0    0    0    0    0   58    0   58    0

>  <minimizedAffinity>  (132) 
-7.04522

>  <CNNscore>  (132) 
0.4432641268

>  <CNNaffinity>  (132) 
4.1868128777

>  <CNN_VS>  (132) 
1.8558639288

>  <CNNaffinity_variance>  (132) 
0.4021442831

$$$$
133
     RDKit          3D

 43 45  0  0  0  0  0  0  0  0999 V2000
   23.0464   73.2993   -4.9678 P   0  0  2  0  0  0  0  0  0  0  0  0
   23.7305   74.7279   -4.6382 O   0  0  0  0  0  0  0  0  0  0  0  0
   23.8232   72.4269   -5.9096 O   0  0  0  0  0  0  0  0  0  0  0  0
   21.5486   73.6861   -5.4421 O   0  0  0  0  0  0  0  0  0  0  0  0
   20.4740   72.8605   -5.0282 C   0  0  0  0  0  0  0  0  0  0  0  0
   19.7007   70.5898   -5.1679 O   0  0  0  0  0  0  0  0  0  0  0  0
   20.3099   70.7600   -8.0989 O   0  0  0  0  0  0  0  0  0  0  0  0
   17.6055   71.1038   -8.0330 O   0  0  0  0  0  0  0  0  0  0  0  0
   19.8007   71.7648   -7.2234 C   0  0  1  0  0  0  0  0  0  0  0  0
   18.3485   71.4886   -6.8943 C   0  0  2  0  0  0  0  0  0  0  0  0
   20.4730   71.5901   -5.8674 C   0  0  1  0  0  0  0  0  0  0  0  0
   18.4644   70.3744   -5.8680 C   0  0  2  0  0  0  0  0  0  0  0  0
   19.8953   70.8515   -8.9717 H   0  0  0  0  0  0  0  0  0  0  0  0
   17.5602   71.8460   -8.6557 H   0  0  0  0  0  0  0  0  0  0  0  0
   17.0889   68.0704   -4.9862 O   0  0  0  0  0  0  0  0  0  0  0  0
   14.3370   70.5419   -2.2368 O   0  0  0  0  0  0  0  0  0  0  0  0
   17.3846   70.3867   -4.9218 N   0  0  0  0  0  0  0  0  0  0  0  0
   15.7199   69.3029   -3.6178 N   0  0  0  0  0  0  0  0  0  0  0  0
   16.7606   69.1742   -4.5465 C   0  0  0  0  0  0  0  0  0  0  0  0
   16.9550   71.5916   -4.3763 C   0  0  0  0  0  0  0  0  0  0  0  0
   15.9602   71.6974   -3.4928 C   0  0  0  0  0  0  0  0  0  0  0  0
   15.2556   70.4777   -3.0479 C   0  0  0  0  0  0  0  0  0  0  0  0
   15.2702   68.4714   -3.3418 H   0  0  0  0  0  0  0  0  0  0  0  0
   22.8099   72.6625   -3.5010 O   0  0  0  0  0  0  0  0  0  0  0  0
   23.2702   71.2464   -2.8718 P   0  0  2  0  0  0  0  0  0  0  0  0
   24.8779   71.2651   -3.0525 O   0  0  0  0  0  0  0  0  0  0  0  0
   22.5924   70.0532   -3.4805 O   0  0  0  0  0  0  0  0  0  0  0  0
   23.0367   71.4102   -1.2832 O   0  0  0  0  0  0  0  0  0  0  0  0
   23.1789   73.3441    0.0792 O   0  0  0  0  0  0  0  0  0  0  0  0
   24.6631   70.5542    2.7371 O   0  0  0  0  0  0  0  0  0  0  0  0
   22.0375   71.6441    3.1445 O   0  0  0  0  0  0  0  0  0  0  0  0
   25.3489   70.3820   -0.0700 O   0  0  0  0  0  0  0  0  0  0  0  0
   23.8257   71.0299    1.6798 C   0  0  1  0  0  0  0  0  0  0  0  0
   22.9788   72.1835    2.2208 C   0  0  1  0  0  0  0  0  0  0  0  0
   24.7033   71.5038    0.5228 C   0  0  2  0  0  0  0  0  0  0  0  0
   22.2529   72.9177    1.0855 C   0  0  1  0  0  0  0  0  0  0  0  0
   23.8914   72.2642   -0.5273 C   0  0  1  0  0  0  0  0  0  0  0  0
   24.1120   70.2513    3.4747 H   0  0  0  0  0  0  0  0  0  0  0  0
   22.5087   71.1828    3.8560 H   0  0  0  0  0  0  0  0  0  0  0  0
   25.8597   69.9092    0.6049 H   0  0  0  0  0  0  0  0  0  0  0  0
   21.9837   74.4586    2.8917 O   0  0  0  0  0  0  0  0  0  0  0  0
   21.5287   74.1667    1.5832 C   0  0  0  0  0  0  0  0  0  0  0  0
   21.5315   75.2514    3.2213 H   0  0  0  0  0  0  0  0  0  0  0  0
 25 28  1  0
 25 24  1  0
 25 26  1  1
 25 27  2  0
  1  4  1  0
  1 24  1  0
  1  2  1  1
  1  3  2  0
  6 11  1  0
  6 12  1  0
 29 36  1  0
 29 37  1  0
  9  7  1  6
  7 13  1  0
 10  8  1  6
  8 14  1  0
 37 28  1  1
  4  5  1  0
 33 30  1  1
 30 38  1  0
 34 31  1  1
 31 39  1  0
 35 32  1  6
 32 40  1  0
 41 42  1  0
 41 43  1  0
 15 19  2  0
 16 22  2  0
 12 17  1  1
 17 19  1  0
 17 20  1  0
 18 19  1  0
 18 22  1  0
 18 23  1  0
  9 10  1  0
  9 11  1  0
 10 12  1  0
 11  5  1  1
 33 34  1  0
 33 35  1  0
 34 36  1  0
 35 37  1  0
 36 42  1  1
 20 21  2  0
 21 22  1  0
M  CHG  2   2  -1  26  -1
M  END
>  <COMPND>  (133) 
    8629 

>  <AUTHOR>  (133) 
    GENERATED BY OPEN BABEL 3.1.1

>  <MASTER>  (133) 
        0    0    0    0    0    0    0    0   58    0   58    0

>  <minimizedAffinity>  (133) 
-7.35302

>  <CNNscore>  (133) 
0.4297366440

>  <CNNaffinity>  (133) 
4.3102111816

>  <CNN_VS>  (133) 
1.8522557020

>  <CNNaffinity_variance>  (133) 
0.1128643006

$$$$
134
     RDKit          3D

 43 45  0  0  0  0  0  0  0  0999 V2000
   19.0481   73.4493   -4.3202 P   0  0  2  0  0  0  0  0  0  0  0  0
   17.6193   73.2186   -3.5973 O   0  0  0  0  0  0  0  0  0  0  0  0
   19.4434   74.8858   -4.4987 O   0  0  0  0  0  0  0  0  0  0  0  0
   18.9420   72.5759   -5.6780 O   0  0  0  0  0  0  0  0  0  0  0  0
   17.7784   71.7957   -5.8908 C   0  0  0  0  0  0  0  0  0  0  0  0
   17.9335   70.0822   -4.2135 O   0  0  0  0  0  0  0  0  0  0  0  0
   17.8491   68.1190   -6.4783 O   0  0  0  0  0  0  0  0  0  0  0  0
   15.2908   68.0501   -5.5364 O   0  0  0  0  0  0  0  0  0  0  0  0
   17.1706   69.3663   -6.3398 C   0  0  1  0  0  0  0  0  0  0  0  0
   16.0322   69.2384   -5.3492 C   0  0  2  0  0  0  0  0  0  0  0  0
   18.1069   70.3329   -5.6254 C   0  0  1  0  0  0  0  0  0  0  0  0
   16.7668   69.2660   -4.0197 C   0  0  2  0  0  0  0  0  0  0  0  0
   17.2709   67.4853   -6.9323 H   0  0  0  0  0  0  0  0  0  0  0  0
   14.8421   68.0807   -6.3957 H   0  0  0  0  0  0  0  0  0  0  0  0
   17.0103   68.5773   -1.2913 O   0  0  0  0  0  0  0  0  0  0  0  0
   13.6628   71.4987   -0.0664 O   0  0  0  0  0  0  0  0  0  0  0  0
   15.9718   69.8314   -2.9663 N   0  0  0  0  0  0  0  0  0  0  0  0
   15.3434   70.0326   -0.6836 N   0  0  0  0  0  0  0  0  0  0  0  0
   16.1727   69.4163   -1.6293 C   0  0  0  0  0  0  0  0  0  0  0  0
   15.0060   70.7867   -3.2636 C   0  0  0  0  0  0  0  0  0  0  0  0
   14.2224   71.3640   -2.3503 C   0  0  0  0  0  0  0  0  0  0  0  0
   14.3683   70.9862   -0.9297 C   0  0  0  0  0  0  0  0  0  0  0  0
   15.4652   69.7588    0.2545 H   0  0  0  0  0  0  0  0  0  0  0  0
   20.0615   72.5811   -3.4079 O   0  0  0  0  0  0  0  0  0  0  0  0
   21.5022   71.9309   -3.7461 P   0  0  2  0  0  0  0  0  0  0  0  0
   22.3540   73.1873   -4.3061 O   0  0  0  0  0  0  0  0  0  0  0  0
   21.4436   70.7570   -4.6801 O   0  0  0  0  0  0  0  0  0  0  0  0
   22.1528   71.6073   -2.3050 O   0  0  0  0  0  0  0  0  0  0  0  0
   22.7471   72.9851   -0.4706 O   0  0  0  0  0  0  0  0  0  0  0  0
   25.9736   70.4084   -0.4329 O   0  0  0  0  0  0  0  0  0  0  0  0
   23.9723   70.2047    1.6168 O   0  0  0  0  0  0  0  0  0  0  0  0
   24.8652   71.2976   -2.9549 O   0  0  0  0  0  0  0  0  0  0  0  0
   24.6048   70.7798   -0.6171 C   0  0  1  0  0  0  0  0  0  0  0  0
   24.0668   71.3044    0.7156 C   0  0  1  0  0  0  0  0  0  0  0  0
   24.5213   71.8605   -1.6934 C   0  0  2  0  0  0  0  0  0  0  0  0
   22.6947   71.9679    0.5365 C   0  0  1  0  0  0  0  0  0  0  0  0
   23.1282   72.4893   -1.7555 C   0  0  1  0  0  0  0  0  0  0  0  0
   26.0336   69.7221    0.2489 H   0  0  0  0  0  0  0  0  0  0  0  0
   24.8452   69.7943    1.7207 H   0  0  0  0  0  0  0  0  0  0  0  0
   25.7492   70.9030   -2.9026 H   0  0  0  0  0  0  0  0  0  0  0  0
   21.5158   71.6753    2.5941 O   0  0  0  0  0  0  0  0  0  0  0  0
   22.2107   72.6367    1.8212 C   0  0  0  0  0  0  0  0  0  0  0  0
   21.2022   72.0868    3.4151 H   0  0  0  0  0  0  0  0  0  0  0  0
 25 28  1  0
 25 24  1  0
 25 26  1  6
 25 27  2  0
  1  4  1  0
  1 24  1  0
  1  2  1  1
  1  3  2  0
  6 11  1  0
  6 12  1  0
 29 36  1  0
 29 37  1  0
  9  7  1  1
  7 13  1  0
 10  8  1  6
  8 14  1  0
 37 28  1  1
  4  5  1  0
 33 30  1  1
 30 38  1  0
 34 31  1  1
 31 39  1  0
 35 32  1  6
 32 40  1  0
 41 42  1  0
 41 43  1  0
 15 19  2  0
 16 22  2  0
 12 17  1  1
 17 19  1  0
 17 20  1  0
 18 19  1  0
 18 22  1  0
 18 23  1  0
  9 10  1  0
  9 11  1  0
 10 12  1  0
 11  5  1  1
 33 34  1  0
 33 35  1  0
 34 36  1  0
 35 37  1  0
 36 42  1  1
 20 21  2  0
 21 22  1  0
M  CHG  2   2  -1  26  -1
M  END
>  <COMPND>  (134) 
    8629 

>  <AUTHOR>  (134) 
    GENERATED BY OPEN BABEL 3.1.1

>  <MASTER>  (134) 
        0    0    0    0    0    0    0    0   58    0   58    0

>  <minimizedAffinity>  (134) 
-6.95166

>  <CNNscore>  (134) 
0.4285448790

>  <CNNaffinity>  (134) 
4.2022876740

>  <CNN_VS>  (134) 
1.8008688688

>  <CNNaffinity_variance>  (134) 
0.3646965921

$$$$
135
     RDKit          3D

 43 45  0  0  0  0  0  0  0  0999 V2000
   17.5557   69.8894   -3.0965 P   0  0  2  0  0  0  0  0  0  0  0  0
   17.4831   68.6845   -2.0192 O   0  0  0  0  0  0  0  0  0  0  0  0
   16.5438   70.9793   -2.8976 O   0  0  0  0  0  0  0  0  0  0  0  0
   17.5039   69.1350   -4.5270 O   0  0  0  0  0  0  0  0  0  0  0  0
   16.2715   69.0928   -5.2248 C   0  0  0  0  0  0  0  0  0  0  0  0
   15.2889   70.1888   -7.1241 O   0  0  0  0  0  0  0  0  0  0  0  0
   18.0906   70.5470   -8.1308 O   0  0  0  0  0  0  0  0  0  0  0  0
   17.5113   73.0037   -7.0985 O   0  0  0  0  0  0  0  0  0  0  0  0
   17.6002   70.5934   -6.7919 C   0  0  1  0  0  0  0  0  0  0  0  0
   16.8440   71.8837   -6.5534 C   0  0  2  0  0  0  0  0  0  0  0  0
   16.4981   69.5497   -6.6594 C   0  0  1  0  0  0  0  0  0  0  0  0
   15.5175   71.6028   -7.2386 C   0  0  2  0  0  0  0  0  0  0  0  0
   18.7958   71.2048   -8.2396 H   0  0  0  0  0  0  0  0  0  0  0  0
   18.3490   73.1411   -6.6294 H   0  0  0  0  0  0  0  0  0  0  0  0
   13.5986   73.1194   -8.6513 O   0  0  0  0  0  0  0  0  0  0  0  0
   11.3699   74.2473   -4.7781 O   0  0  0  0  0  0  0  0  0  0  0  0
   14.4247   72.3030   -6.6245 N   0  0  0  0  0  0  0  0  0  0  0  0
   12.4903   73.6796   -6.7216 N   0  0  0  0  0  0  0  0  0  0  0  0
   13.5174   73.0365   -7.4241 C   0  0  0  0  0  0  0  0  0  0  0  0
   14.2610   72.2579   -5.2443 C   0  0  0  0  0  0  0  0  0  0  0  0
   13.2769   72.8778   -4.5896 C   0  0  0  0  0  0  0  0  0  0  0  0
   12.2862   73.6657   -5.3509 C   0  0  0  0  0  0  0  0  0  0  0  0
   11.8465   74.1970   -7.2579 H   0  0  0  0  0  0  0  0  0  0  0  0
   19.0947   70.3738   -2.9967 O   0  0  0  0  0  0  0  0  0  0  0  0
   19.9154   71.0589   -1.7843 P   0  0  2  0  0  0  0  0  0  0  0  0
   20.3796   69.7937   -0.8890 O   0  0  0  0  0  0  0  0  0  0  0  0
   19.1423   72.1012   -1.0295 O   0  0  0  0  0  0  0  0  0  0  0  0
   21.2760   71.5976   -2.4651 O   0  0  0  0  0  0  0  0  0  0  0  0
   22.0436   73.8385   -2.5424 O   0  0  0  0  0  0  0  0  0  0  0  0
   23.6088   72.4813   -6.1144 O   0  0  0  0  0  0  0  0  0  0  0  0
   25.3630   72.9788   -3.8956 O   0  0  0  0  0  0  0  0  0  0  0  0
   20.9895   71.5964   -5.2567 O   0  0  0  0  0  0  0  0  0  0  0  0
   23.2087   72.3802   -4.7451 C   0  0  1  0  0  0  0  0  0  0  0  0
   24.0044   73.4064   -3.9360 C   0  0  1  0  0  0  0  0  0  0  0  0
   21.7103   72.6583   -4.6409 C   0  0  2  0  0  0  0  0  0  0  0  0
   23.4451   73.5444   -2.5136 C   0  0  1  0  0  0  0  0  0  0  0  0
   21.2669   72.8267   -3.1866 C   0  0  1  0  0  0  0  0  0  0  0  0
   24.5591   72.3054   -6.1875 H   0  0  0  0  0  0  0  0  0  0  0  0
   25.7039   72.8951   -4.8000 H   0  0  0  0  0  0  0  0  0  0  0  0
   21.2791   71.5001   -6.1769 H   0  0  0  0  0  0  0  0  0  0  0  0
   23.3401   75.8458   -1.8797 O   0  0  0  0  0  0  0  0  0  0  0  0
   24.1220   74.6739   -1.7400 C   0  0  0  0  0  0  0  0  0  0  0  0
   23.7587   76.5730   -1.3922 H   0  0  0  0  0  0  0  0  0  0  0  0
 25 28  1  0
 25 24  1  0
 25 26  1  1
 25 27  2  0
  1  4  1  0
  1 24  1  0
  1  2  1  1
  1  3  2  0
  6 11  1  0
  6 12  1  0
 29 36  1  0
 29 37  1  0
  9  7  1  6
  7 13  1  0
 10  8  1  6
  8 14  1  0
 37 28  1  1
  4  5  1  0
 33 30  1  6
 30 38  1  0
 34 31  1  1
 31 39  1  0
 35 32  1  1
 32 40  1  0
 41 42  1  0
 41 43  1  0
 15 19  2  0
 16 22  2  0
 12 17  1  1
 17 19  1  0
 17 20  1  0
 18 19  1  0
 18 22  1  0
 18 23  1  0
  9 10  1  0
  9 11  1  0
 10 12  1  0
 11  5  1  1
 33 34  1  0
 33 35  1  0
 34 36  1  0
 35 37  1  0
 36 42  1  6
 20 21  2  0
 21 22  1  0
M  CHG  2   2  -1  26  -1
M  END
>  <COMPND>  (135) 
    8629 

>  <AUTHOR>  (135) 
    GENERATED BY OPEN BABEL 3.1.1

>  <MASTER>  (135) 
        0    0    0    0    0    0    0    0   58    0   58    0

>  <minimizedAffinity>  (135) 
-6.73085

>  <CNNscore>  (135) 
0.4212163687

>  <CNNaffinity>  (135) 
4.1483755112

>  <CNN_VS>  (135) 
1.7473636866

>  <CNNaffinity_variance>  (135) 
0.0810814127

$$$$
136
     RDKit          3D

 43 45  0  0  0  0  0  0  0  0999 V2000
   18.9008   72.4014   -1.6196 P   0  0  2  0  0  0  0  0  0  0  0  0
   18.4588   73.4725   -2.7487 O   0  0  0  0  0  0  0  0  0  0  0  0
   18.1557   72.5052   -0.3213 O   0  0  0  0  0  0  0  0  0  0  0  0
   20.5063   72.5776   -1.5244 O   0  0  0  0  0  0  0  0  0  0  0  0
   21.3085   71.4150   -1.4110 C   0  0  0  0  0  0  0  0  0  0  0  0
   22.7359   72.8779   -0.1476 O   0  0  0  0  0  0  0  0  0  0  0  0
   24.9662   70.9999   -0.8473 O   0  0  0  0  0  0  0  0  0  0  0  0
   24.3582   70.2740    1.7100 O   0  0  0  0  0  0  0  0  0  0  0  0
   23.5995   70.7098   -0.5585 C   0  0  1  0  0  0  0  0  0  0  0  0
   23.3343   70.8515    0.9258 C   0  0  2  0  0  0  0  0  0  0  0  0
   22.7484   71.8306   -1.1421 C   0  0  1  0  0  0  0  0  0  0  0  0
   23.2534   72.3598    1.0888 C   0  0  2  0  0  0  0  0  0  0  0  0
   25.5293   70.2976   -0.4846 H   0  0  0  0  0  0  0  0  0  0  0  0
   24.3691   69.3141    1.5717 H   0  0  0  0  0  0  0  0  0  0  0  0
   23.9805   72.3704    3.8181 O   0  0  0  0  0  0  0  0  0  0  0  0
   19.8185   73.8705    5.1098 O   0  0  0  0  0  0  0  0  0  0  0  0
   22.3796   72.7490    2.1595 N   0  0  0  0  0  0  0  0  0  0  0  0
   21.9076   73.1175    4.4590 N   0  0  0  0  0  0  0  0  0  0  0  0
   22.8424   72.7176    3.4956 C   0  0  0  0  0  0  0  0  0  0  0  0
   21.0797   73.1563    1.8799 C   0  0  0  0  0  0  0  0  0  0  0  0
   20.2001   73.5334    2.8102 C   0  0  0  0  0  0  0  0  0  0  0  0
   20.6041   73.5294    4.2310 C   0  0  0  0  0  0  0  0  0  0  0  0
   22.2076   73.1033    5.3969 H   0  0  0  0  0  0  0  0  0  0  0  0
   18.7352   70.9839   -2.3788 O   0  0  0  0  0  0  0  0  0  0  0  0
   17.4334   70.0583   -2.6270 P   0  0  2  0  0  0  0  0  0  0  0  0
   16.2076   71.0141   -2.1785 O   0  0  0  0  0  0  0  0  0  0  0  0
   17.4764   68.7340   -1.9210 O   0  0  0  0  0  0  0  0  0  0  0  0
   17.3046   69.9565   -4.2326 O   0  0  0  0  0  0  0  0  0  0  0  0
   18.4845   71.2161   -5.8567 O   0  0  0  0  0  0  0  0  0  0  0  0
   14.9250   70.6951   -7.8839 O   0  0  0  0  0  0  0  0  0  0  0  0
   17.2591   69.2465   -8.7217 O   0  0  0  0  0  0  0  0  0  0  0  0
   14.9043   71.1727   -5.0289 O   0  0  0  0  0  0  0  0  0  0  0  0
   15.9899   70.3240   -7.0043 C   0  0  1  0  0  0  0  0  0  0  0  0
   17.2958   70.3338   -7.8014 C   0  0  1  0  0  0  0  0  0  0  0  0
   16.0564   71.3237   -5.8513 C   0  0  2  0  0  0  0  0  0  0  0  0
   18.5120   70.2080   -6.8739 C   0  0  1  0  0  0  0  0  0  0  0  0
   17.3282   71.1439   -5.0204 C   0  0  1  0  0  0  0  0  0  0  0  0
   14.8771   70.0641   -8.6180 H   0  0  0  0  0  0  0  0  0  0  0  0
   16.4863   69.3377   -9.3011 H   0  0  0  0  0  0  0  0  0  0  0  0
   14.1059   71.2891   -5.5664 H   0  0  0  0  0  0  0  0  0  0  0  0
   19.5419   70.8641   -8.9277 O   0  0  0  0  0  0  0  0  0  0  0  0
   19.8280   70.3737   -7.6308 C   0  0  0  0  0  0  0  0  0  0  0  0
   20.3703   70.9747   -9.4209 H   0  0  0  0  0  0  0  0  0  0  0  0
 25 28  1  0
 25 24  1  0
 25 26  1  1
 25 27  2  0
  1  4  1  0
  1 24  1  0
  1  2  1  6
  1  3  2  0
  6 11  1  0
  6 12  1  0
 29 36  1  0
 29 37  1  0
  9  7  1  1
  7 13  1  0
 10  8  1  1
  8 14  1  0
 37 28  1  6
  4  5  1  0
 33 30  1  6
 30 38  1  0
 34 31  1  6
 31 39  1  0
 35 32  1  1
 32 40  1  0
 41 42  1  0
 41 43  1  0
 15 19  2  0
 16 22  2  0
 12 17  1  1
 17 19  1  0
 17 20  1  0
 18 19  1  0
 18 22  1  0
 18 23  1  0
  9 10  1  0
  9 11  1  0
 10 12  1  0
 11  5  1  1
 33 34  1  0
 33 35  1  0
 34 36  1  0
 35 37  1  0
 36 42  1  6
 20 21  2  0
 21 22  1  0
M  CHG  2   2  -1  26  -1
M  END
>  <COMPND>  (136) 
    8629 

>  <AUTHOR>  (136) 
    GENERATED BY OPEN BABEL 3.1.1

>  <MASTER>  (136) 
        0    0    0    0    0    0    0    0   58    0   58    0

>  <minimizedAffinity>  (136) 
-6.82917

>  <CNNscore>  (136) 
0.4071114957

>  <CNNaffinity>  (136) 
4.0790548325

>  <CNN_VS>  (136) 
1.6606301069

>  <CNNaffinity_variance>  (136) 
0.3354979455

$$$$
137
     RDKit          3D

 43 45  0  0  0  0  0  0  0  0999 V2000
   19.4285   72.3094   -2.0404 P   0  0  2  0  0  0  0  0  0  0  0  0
   18.2220   73.3029   -2.4586 O   0  0  0  0  0  0  0  0  0  0  0  0
   18.9984   70.9431   -1.5936 O   0  0  0  0  0  0  0  0  0  0  0  0
   20.2806   73.1651   -0.9635 O   0  0  0  0  0  0  0  0  0  0  0  0
   21.0999   72.4674   -0.0417 C   0  0  0  0  0  0  0  0  0  0  0  0
   23.3963   73.0976    0.2793 O   0  0  0  0  0  0  0  0  0  0  0  0
   24.0732   70.9011   -1.6464 O   0  0  0  0  0  0  0  0  0  0  0  0
   24.6151   69.7605    0.7707 O   0  0  0  0  0  0  0  0  0  0  0  0
   23.0464   70.9490   -0.6570 C   0  0  1  0  0  0  0  0  0  0  0  0
   23.6407   70.7830    0.7260 C   0  0  2  0  0  0  0  0  0  0  0  0
   22.5116   72.3747   -0.6044 C   0  0  1  0  0  0  0  0  0  0  0  0
   24.2267   72.1607    0.9846 C   0  0  2  0  0  0  0  0  0  0  0  0
   24.4300   70.0001   -1.6985 H   0  0  0  0  0  0  0  0  0  0  0  0
   24.1931   68.9040    0.6003 H   0  0  0  0  0  0  0  0  0  0  0  0
   26.2789   73.6208    2.2631 O   0  0  0  0  0  0  0  0  0  0  0  0
   24.1428   73.4048    6.3413 O   0  0  0  0  0  0  0  0  0  0  0  0
   24.2323   72.5005    2.3795 N   0  0  0  0  0  0  0  0  0  0  0  0
   25.2135   73.5122    4.2926 N   0  0  0  0  0  0  0  0  0  0  0  0
   25.3113   73.2359    2.9229 C   0  0  0  0  0  0  0  0  0  0  0  0
   23.1759   72.1057    3.1932 C   0  0  0  0  0  0  0  0  0  0  0  0
   23.0983   72.3760    4.4978 C   0  0  0  0  0  0  0  0  0  0  0  0
   24.1848   73.1404    5.1437 C   0  0  0  0  0  0  0  0  0  0  0  0
   25.9540   74.0231    4.6932 H   0  0  0  0  0  0  0  0  0  0  0  0
   20.3789   72.3214   -3.3479 O   0  0  0  0  0  0  0  0  0  0  0  0
   20.1808   73.0075   -4.7981 P   0  0  2  0  0  0  0  0  0  0  0  0
   21.5086   72.5580   -5.6058 O   0  0  0  0  0  0  0  0  0  0  0  0
   19.9569   74.4913   -4.7514 O   0  0  0  0  0  0  0  0  0  0  0  0
   18.9832   72.1717   -5.4852 O   0  0  0  0  0  0  0  0  0  0  0  0
   18.3093   70.0459   -4.6831 O   0  0  0  0  0  0  0  0  0  0  0  0
   17.0170   69.7166   -8.5911 O   0  0  0  0  0  0  0  0  0  0  0  0
   15.0930   70.0442   -6.4843 O   0  0  0  0  0  0  0  0  0  0  0  0
   19.5154   71.0557   -8.0044 O   0  0  0  0  0  0  0  0  0  0  0  0
   17.2903   70.3946   -7.3619 C   0  0  1  0  0  0  0  0  0  0  0  0
   16.4648   69.7339   -6.2560 C   0  0  1  0  0  0  0  0  0  0  0  0
   18.7829   70.2891   -7.0547 C   0  0  2  0  0  0  0  0  0  0  0  0
   16.9007   70.2269   -4.8697 C   0  0  1  0  0  0  0  0  0  0  0  0
   19.1018   70.7593   -5.6344 C   0  0  1  0  0  0  0  0  0  0  0  0
   16.0710   69.7803   -8.7922 H   0  0  0  0  0  0  0  0  0  0  0  0
   14.8306   69.7281   -7.3631 H   0  0  0  0  0  0  0  0  0  0  0  0
   19.3050   70.7482   -8.8994 H   0  0  0  0  0  0  0  0  0  0  0  0
   17.1854   68.9631   -2.8620 O   0  0  0  0  0  0  0  0  0  0  0  0
   16.2005   69.4661   -3.7459 C   0  0  0  0  0  0  0  0  0  0  0  0
   16.7543   68.4768   -2.1414 H   0  0  0  0  0  0  0  0  0  0  0  0
 25 28  1  0
 25 24  1  0
 25 26  1  6
 25 27  2  0
  1  4  1  0
  1 24  1  0
  1  2  1  6
  1  3  2  0
  6 11  1  0
  6 12  1  0
 29 36  1  0
 29 37  1  0
  9  7  1  6
  7 13  1  0
 10  8  1  6
  8 14  1  0
 37 28  1  6
  4  5  1  0
 33 30  1  6
 30 38  1  0
 34 31  1  6
 31 39  1  0
 35 32  1  6
 32 40  1  0
 41 42  1  0
 41 43  1  0
 15 19  2  0
 16 22  2  0
 12 17  1  1
 17 19  1  0
 17 20  1  0
 18 19  1  0
 18 22  1  0
 18 23  1  0
  9 10  1  0
  9 11  1  0
 10 12  1  0
 11  5  1  1
 33 34  1  0
 33 35  1  0
 34 36  1  0
 35 37  1  0
 36 42  1  1
 20 21  2  0
 21 22  1  0
M  CHG  2   2  -1  26  -1
M  END
>  <COMPND>  (137) 
    8629 

>  <AUTHOR>  (137) 
    GENERATED BY OPEN BABEL 3.1.1

>  <MASTER>  (137) 
        0    0    0    0    0    0    0    0   58    0   58    0

>  <minimizedAffinity>  (137) 
-6.82033

>  <CNNscore>  (137) 
0.4047149718

>  <CNNaffinity>  (137) 
4.1621918678

>  <CNN_VS>  (137) 
1.6845014095

>  <CNNaffinity_variance>  (137) 
0.4285901189

$$$$
138
     RDKit          3D

 43 45  0  0  0  0  0  0  0  0999 V2000
   23.9593   72.4115   -3.1284 P   0  0  2  0  0  0  0  0  0  0  0  0
   25.3231   72.7032   -3.9483 O   0  0  0  0  0  0  0  0  0  0  0  0
   23.7639   70.9836   -2.7108 O   0  0  0  0  0  0  0  0  0  0  0  0
   22.7996   73.0332   -4.0699 O   0  0  0  0  0  0  0  0  0  0  0  0
   21.8381   72.1544   -4.6277 C   0  0  0  0  0  0  0  0  0  0  0  0
   20.9744   71.3982   -6.7386 O   0  0  0  0  0  0  0  0  0  0  0  0
   21.0150   74.2775   -7.5745 O   0  0  0  0  0  0  0  0  0  0  0  0
   18.3871   73.8710   -6.9701 O   0  0  0  0  0  0  0  0  0  0  0  0
   20.7184   73.7126   -6.2985 C   0  0  1  0  0  0  0  0  0  0  0  0
   19.3477   73.0687   -6.3143 C   0  0  2  0  0  0  0  0  0  0  0  0
   21.6321   72.5107   -6.0936 C   0  0  1  0  0  0  0  0  0  0  0  0
   19.6200   71.7660   -7.0471 C   0  0  2  0  0  0  0  0  0  0  0  0
   20.4440   75.0472   -7.7278 H   0  0  0  0  0  0  0  0  0  0  0  0
   18.2488   74.6877   -6.4654 H   0  0  0  0  0  0  0  0  0  0  0  0
   18.1819   70.0942   -8.8120 O   0  0  0  0  0  0  0  0  0  0  0  0
   16.2841   67.7440   -5.3312 O   0  0  0  0  0  0  0  0  0  0  0  0
   18.7430   70.7089   -6.6292 N   0  0  0  0  0  0  0  0  0  0  0  0
   17.2383   68.9252   -7.0774 N   0  0  0  0  0  0  0  0  0  0  0  0
   18.0672   69.9283   -7.5959 C   0  0  0  0  0  0  0  0  0  0  0  0
   18.5604   70.4548   -5.2743 C   0  0  0  0  0  0  0  0  0  0  0  0
   17.7654   69.4954   -4.7961 C   0  0  0  0  0  0  0  0  0  0  0  0
   17.0230   68.6346   -5.7395 C   0  0  0  0  0  0  0  0  0  0  0  0
   16.7570   68.3690   -7.7322 H   0  0  0  0  0  0  0  0  0  0  0  0
   24.0380   73.4654   -1.9052 O   0  0  0  0  0  0  0  0  0  0  0  0
   23.0367   73.7273   -0.6636 P   0  0  2  0  0  0  0  0  0  0  0  0
   22.6394   75.2868   -0.8299 O   0  0  0  0  0  0  0  0  0  0  0  0
   23.6134   73.3748    0.6770 O   0  0  0  0  0  0  0  0  0  0  0  0
   21.6919   72.9211   -1.0462 O   0  0  0  0  0  0  0  0  0  0  0  0
   19.8112   72.9786    0.3948 O   0  0  0  0  0  0  0  0  0  0  0  0
   18.9650   69.4957   -1.6556 O   0  0  0  0  0  0  0  0  0  0  0  0
   17.4198   71.8596   -2.1776 O   0  0  0  0  0  0  0  0  0  0  0  0
   21.6979   70.1172   -0.9312 O   0  0  0  0  0  0  0  0  0  0  0  0
   19.4667   70.8257   -1.4978 C   0  0  1  0  0  0  0  0  0  0  0  0
   18.3073   71.7280   -1.0707 C   0  0  1  0  0  0  0  0  0  0  0  0
   20.5648   70.8223   -0.4359 C   0  0  2  0  0  0  0  0  0  0  0  0
   18.8134   73.1065   -0.6248 C   0  0  1  0  0  0  0  0  0  0  0  0
   20.9606   72.2426   -0.0282 C   0  0  1  0  0  0  0  0  0  0  0  0
   18.2678   69.4908   -2.3289 H   0  0  0  0  0  0  0  0  0  0  0  0
   17.1079   70.9821   -2.4496 H   0  0  0  0  0  0  0  0  0  0  0  0
   21.4342   69.2196   -1.1855 H   0  0  0  0  0  0  0  0  0  0  0  0
   16.9766   74.5526   -1.1188 O   0  0  0  0  0  0  0  0  0  0  0  0
   17.6926   73.9677   -0.0466 C   0  0  0  0  0  0  0  0  0  0  0  0
   16.2598   75.1034   -0.7658 H   0  0  0  0  0  0  0  0  0  0  0  0
 25 28  1  0
 25 24  1  0
 25 26  1  1
 25 27  2  0
  1  4  1  0
  1 24  1  0
  1  2  1  6
  1  3  2  0
  6 11  1  0
  6 12  1  0
 29 36  1  0
 29 37  1  0
  9  7  1  6
  7 13  1  0
 10  8  1  6
  8 14  1  0
 37 28  1  6
  4  5  1  0
 33 30  1  1
 30 38  1  0
 34 31  1  6
 31 39  1  0
 35 32  1  6
 32 40  1  0
 41 42  1  0
 41 43  1  0
 15 19  2  0
 16 22  2  0
 12 17  1  1
 17 19  1  0
 17 20  1  0
 18 19  1  0
 18 22  1  0
 18 23  1  0
  9 10  1  0
  9 11  1  0
 10 12  1  0
 11  5  1  1
 33 34  1  0
 33 35  1  0
 34 36  1  0
 35 37  1  0
 36 42  1  1
 20 21  2  0
 21 22  1  0
M  CHG  2   2  -1  26  -1
M  END
>  <COMPND>  (138) 
    8629 

>  <AUTHOR>  (138) 
    GENERATED BY OPEN BABEL 3.1.1

>  <MASTER>  (138) 
        0    0    0    0    0    0    0    0   58    0   58    0

>  <minimizedAffinity>  (138) 
-6.40770

>  <CNNscore>  (138) 
0.3882329166

>  <CNNaffinity>  (138) 
4.0249538422

>  <CNN_VS>  (138) 
1.5626195669

>  <CNNaffinity_variance>  (138) 
0.2857448459

$$$$
139
     RDKit          3D

 43 45  0  0  0  0  0  0  0  0999 V2000
   17.9921   72.5651   -1.4369 P   0  0  2  0  0  0  0  0  0  0  0  0
   17.4698   73.5096   -2.6421 O   0  0  0  0  0  0  0  0  0  0  0  0
   17.0864   72.5030   -0.2422 O   0  0  0  0  0  0  0  0  0  0  0  0
   19.4948   73.0933   -1.1528 O   0  0  0  0  0  0  0  0  0  0  0  0
   20.1388   72.6890    0.0429 C   0  0  0  0  0  0  0  0  0  0  0  0
   21.4174   71.3568   -1.4948 O   0  0  0  0  0  0  0  0  0  0  0  0
   22.1118   69.6387    0.8625 O   0  0  0  0  0  0  0  0  0  0  0  0
   24.3520   71.1635    0.5579 O   0  0  0  0  0  0  0  0  0  0  0  0
   21.9351   71.0528    0.7977 C   0  0  1  0  0  0  0  0  0  0  0  0
   23.1220   71.7003    0.1154 C   0  0  2  0  0  0  0  0  0  0  0  0
   20.8073   71.3402   -0.1856 C   0  0  1  0  0  0  0  0  0  0  0  0
   22.8461   71.4008   -1.3483 C   0  0  2  0  0  0  0  0  0  0  0  0
   22.8269   69.4305    1.4847 H   0  0  0  0  0  0  0  0  0  0  0  0
   24.4816   71.3808    1.4942 H   0  0  0  0  0  0  0  0  0  0  0  0
   25.1372   71.0708   -2.9669 O   0  0  0  0  0  0  0  0  0  0  0  0
   24.7791   75.3414   -4.6625 O   0  0  0  0  0  0  0  0  0  0  0  0
   23.3737   72.4100   -2.2227 N   0  0  0  0  0  0  0  0  0  0  0  0
   24.9569   73.1974   -3.8100 N   0  0  0  0  0  0  0  0  0  0  0  0
   24.5301   72.1434   -2.9922 C   0  0  0  0  0  0  0  0  0  0  0  0
   22.7457   73.6476   -2.3111 C   0  0  0  0  0  0  0  0  0  0  0  0
   23.1660   74.6426   -3.0950 C   0  0  0  0  0  0  0  0  0  0  0  0
   24.3675   74.4458   -3.9315 C   0  0  0  0  0  0  0  0  0  0  0  0
   25.7609   73.0348   -4.3549 H   0  0  0  0  0  0  0  0  0  0  0  0
   18.2385   71.1450   -2.1688 O   0  0  0  0  0  0  0  0  0  0  0  0
   17.2119   69.9576   -2.5550 P   0  0  2  0  0  0  0  0  0  0  0  0
   15.7600   70.6445   -2.3607 O   0  0  0  0  0  0  0  0  0  0  0  0
   17.4091   68.6937   -1.7691 O   0  0  0  0  0  0  0  0  0  0  0  0
   17.3702   69.7839   -4.1518 O   0  0  0  0  0  0  0  0  0  0  0  0
   18.5302   71.1084   -5.7383 O   0  0  0  0  0  0  0  0  0  0  0  0
   15.2461   70.0737   -8.0176 O   0  0  0  0  0  0  0  0  0  0  0  0
   17.7982   68.8858   -8.5867 O   0  0  0  0  0  0  0  0  0  0  0  0
   14.9216   70.6647   -5.2025 O   0  0  0  0  0  0  0  0  0  0  0  0
   16.2669   69.8721   -7.0364 C   0  0  1  0  0  0  0  0  0  0  0  0
   17.6268   70.0072   -7.7244 C   0  0  1  0  0  0  0  0  0  0  0  0
   16.1150   70.9200   -5.9354 C   0  0  2  0  0  0  0  0  0  0  0  0
   18.7642   70.0693   -6.6960 C   0  0  1  0  0  0  0  0  0  0  0  0
   17.3221   70.9313   -4.9959 C   0  0  1  0  0  0  0  0  0  0  0  0
   15.3366   69.4112   -8.7193 H   0  0  0  0  0  0  0  0  0  0  0  0
   17.0733   68.8579   -9.2308 H   0  0  0  0  0  0  0  0  0  0  0  0
   14.1648   70.6604   -5.8083 H   0  0  0  0  0  0  0  0  0  0  0  0
   20.7685   69.1318   -7.5975 O   0  0  0  0  0  0  0  0  0  0  0  0
   20.1122   70.3618   -7.3512 C   0  0  0  0  0  0  0  0  0  0  0  0
   21.6279   69.3024   -8.0147 H   0  0  0  0  0  0  0  0  0  0  0  0
 25 28  1  0
 25 24  1  0
 25 26  1  6
 25 27  2  0
  1  4  1  0
  1 24  1  0
  1  2  1  6
  1  3  2  0
  6 11  1  0
  6 12  1  0
 29 36  1  0
 29 37  1  0
  9  7  1  6
  7 13  1  0
 10  8  1  1
  8 14  1  0
 37 28  1  6
  4  5  1  0
 33 30  1  6
 30 38  1  0
 34 31  1  6
 31 39  1  0
 35 32  1  1
 32 40  1  0
 41 42  1  0
 41 43  1  0
 15 19  2  0
 16 22  2  0
 12 17  1  6
 17 19  1  0
 17 20  1  0
 18 19  1  0
 18 22  1  0
 18 23  1  0
  9 10  1  0
  9 11  1  0
 10 12  1  0
 11  5  1  1
 33 34  1  0
 33 35  1  0
 34 36  1  0
 35 37  1  0
 36 42  1  6
 20 21  2  0
 21 22  1  0
M  CHG  2   2  -1  26  -1
M  END
>  <COMPND>  (139) 
    8629 

>  <AUTHOR>  (139) 
    GENERATED BY OPEN BABEL 3.1.1

>  <MASTER>  (139) 
        0    0    0    0    0    0    0    0   58    0   58    0

>  <minimizedAffinity>  (139) 
-7.56383

>  <CNNscore>  (139) 
0.3861461878

>  <CNNaffinity>  (139) 
3.9403693676

>  <CNN_VS>  (139) 
1.5215586424

>  <CNNaffinity_variance>  (139) 
0.8617585897

$$$$
140
     RDKit          3D

 43 45  0  0  0  0  0  0  0  0999 V2000
   19.7847   71.1689   -1.5321 P   0  0  2  0  0  0  0  0  0  0  0  0
   19.0983   72.1299   -0.4263 O   0  0  0  0  0  0  0  0  0  0  0  0
   19.2770   69.7570   -1.5475 O   0  0  0  0  0  0  0  0  0  0  0  0
   21.3713   71.3421   -1.2661 O   0  0  0  0  0  0  0  0  0  0  0  0
   21.9054   72.6525   -1.1932 C   0  0  0  0  0  0  0  0  0  0  0  0
   24.1513   73.4019   -0.7828 O   0  0  0  0  0  0  0  0  0  0  0  0
   25.0185   71.2372   -2.6676 O   0  0  0  0  0  0  0  0  0  0  0  0
   25.5196   70.1341   -0.2245 O   0  0  0  0  0  0  0  0  0  0  0  0
   23.9512   71.2350   -1.7210 C   0  0  1  0  0  0  0  0  0  0  0  0
   24.4964   71.1046   -0.3141 C   0  0  2  0  0  0  0  0  0  0  0  0
   23.3418   72.6312   -1.6977 C   0  0  1  0  0  0  0  0  0  0  0  0
   24.9995   72.5116   -0.0394 C   0  0  2  0  0  0  0  0  0  0  0  0
   25.4232   70.3556   -2.7004 H   0  0  0  0  0  0  0  0  0  0  0  0
   25.1497   69.2563   -0.4073 H   0  0  0  0  0  0  0  0  0  0  0  0
   26.8753   71.6844    1.9035 O   0  0  0  0  0  0  0  0  0  0  0  0
   24.6339   73.8913    5.2721 O   0  0  0  0  0  0  0  0  0  0  0  0
   24.9307   72.8558    1.3528 N   0  0  0  0  0  0  0  0  0  0  0  0
   25.7579   72.7841    3.5792 N   0  0  0  0  0  0  0  0  0  0  0  0
   25.9228   72.3882    2.2458 C   0  0  0  0  0  0  0  0  0  0  0  0
   23.8882   73.6488    1.8198 C   0  0  0  0  0  0  0  0  0  0  0  0
   23.7445   74.0164    3.0947 C   0  0  0  0  0  0  0  0  0  0  0  0
   24.7383   73.5702    4.0923 C   0  0  0  0  0  0  0  0  0  0  0  0
   26.4369   72.4698    4.2195 H   0  0  0  0  0  0  0  0  0  0  0  0
   19.5566   71.9809   -2.9111 O   0  0  0  0  0  0  0  0  0  0  0  0
   19.9844   71.6335   -4.4307 P   0  0  2  0  0  0  0  0  0  0  0  0
   21.1505   70.5276   -4.2443 O   0  0  0  0  0  0  0  0  0  0  0  0
   20.3886   72.8285   -5.2447 O   0  0  0  0  0  0  0  0  0  0  0  0
   18.7326   70.8090   -5.0291 O   0  0  0  0  0  0  0  0  0  0  0  0
   16.6655   71.9614   -5.1549 O   0  0  0  0  0  0  0  0  0  0  0  0
   15.2881   68.0896   -5.5593 O   0  0  0  0  0  0  0  0  0  0  0  0
   15.2936   69.8380   -7.8378 O   0  0  0  0  0  0  0  0  0  0  0  0
   17.4625   68.6658   -3.7373 O   0  0  0  0  0  0  0  0  0  0  0  0
   16.2100   69.1694   -5.7320 C   0  0  1  0  0  0  0  0  0  0  0  0
   15.5017   70.2862   -6.5013 C   0  0  1  0  0  0  0  0  0  0  0  0
   16.6614   69.6647   -4.3594 C   0  0  2  0  0  0  0  0  0  0  0  0
   16.3320   71.5768   -6.4938 C   0  0  1  0  0  0  0  0  0  0  0  0
   17.4369   70.9794   -4.4603 C   0  0  1  0  0  0  0  0  0  0  0  0
   14.9980   67.7702   -6.4272 H   0  0  0  0  0  0  0  0  0  0  0  0
   14.7686   69.0222   -7.8285 H   0  0  0  0  0  0  0  0  0  0  0  0
   16.9603   67.8386   -3.6791 H   0  0  0  0  0  0  0  0  0  0  0  0
   16.0313   72.9181   -8.4481 O   0  0  0  0  0  0  0  0  0  0  0  0
   15.5756   72.7471   -7.1187 C   0  0  0  0  0  0  0  0  0  0  0  0
   15.5584   73.6595   -8.8585 H   0  0  0  0  0  0  0  0  0  0  0  0
 25 28  1  0
 25 24  1  0
 25 26  1  1
 25 27  2  0
  1  4  1  0
  1 24  1  0
  1  2  1  1
  1  3  2  0
  6 11  1  0
  6 12  1  0
 29 36  1  0
 29 37  1  0
  9  7  1  6
  7 13  1  0
 10  8  1  6
  8 14  1  0
 37 28  1  6
  4  5  1  0
 33 30  1  1
 30 38  1  0
 34 31  1  6
 31 39  1  0
 35 32  1  6
 32 40  1  0
 41 42  1  0
 41 43  1  0
 15 19  2  0
 16 22  2  0
 12 17  1  1
 17 19  1  0
 17 20  1  0
 18 19  1  0
 18 22  1  0
 18 23  1  0
  9 10  1  0
  9 11  1  0
 10 12  1  0
 11  5  1  1
 33 34  1  0
 33 35  1  0
 34 36  1  0
 35 37  1  0
 36 42  1  1
 20 21  2  0
 21 22  1  0
M  CHG  2   2  -1  26  -1
M  END
>  <COMPND>  (140) 
    8629 

>  <AUTHOR>  (140) 
    GENERATED BY OPEN BABEL 3.1.1

>  <MASTER>  (140) 
        0    0    0    0    0    0    0    0   58    0   58    0

>  <minimizedAffinity>  (140) 
-7.36417

>  <CNNscore>  (140) 
0.3849028647

>  <CNNaffinity>  (140) 
4.0411553383

>  <CNN_VS>  (140) 
1.5554522276

>  <CNNaffinity_variance>  (140) 
0.1048163325

$$$$
141
     RDKit          3D

 43 45  0  0  0  0  0  0  0  0999 V2000
   23.8204   71.5195   -1.8805 P   0  0  2  0  0  0  0  0  0  0  0  0
   24.8819   71.0432   -3.0048 O   0  0  0  0  0  0  0  0  0  0  0  0
   23.6852   73.0058   -1.7258 O   0  0  0  0  0  0  0  0  0  0  0  0
   24.2730   70.7132   -0.5527 O   0  0  0  0  0  0  0  0  0  0  0  0
   24.5576   71.4517    0.6226 C   0  0  0  0  0  0  0  0  0  0  0  0
   24.1849   71.1304    2.9746 O   0  0  0  0  0  0  0  0  0  0  0  0
   21.2669   71.4565    2.3663 O   0  0  0  0  0  0  0  0  0  0  0  0
   21.9439   73.9037    3.3611 O   0  0  0  0  0  0  0  0  0  0  0  0
   22.3897   72.1121    1.7791 C   0  0  1  0  0  0  0  0  0  0  0  0
   22.9557   73.1423    2.7340 C   0  0  2  0  0  0  0  0  0  0  0  0
   23.5278   71.1032    1.6886 C   0  0  1  0  0  0  0  0  0  0  0  0
   23.7261   72.2739    3.7141 C   0  0  2  0  0  0  0  0  0  0  0  0
   20.5272   72.0811    2.4342 H   0  0  0  0  0  0  0  0  0  0  0  0
   21.4829   74.4389    2.6964 H   0  0  0  0  0  0  0  0  0  0  0  0
   23.7738   73.4539    6.2798 O   0  0  0  0  0  0  0  0  0  0  0  0
   28.1330   74.8551    5.7552 O   0  0  0  0  0  0  0  0  0  0  0  0
   24.8605   72.9533    4.2735 N   0  0  0  0  0  0  0  0  0  0  0  0
   25.9443   74.1505    6.0166 N   0  0  0  0  0  0  0  0  0  0  0  0
   24.7803   73.5118    5.5704 C   0  0  0  0  0  0  0  0  0  0  0  0
   26.0361   73.0602    3.5383 C   0  0  0  0  0  0  0  0  0  0  0  0
   27.1369   73.6736    3.9776 C   0  0  0  0  0  0  0  0  0  0  0  0
   27.1366   74.2840    5.3228 C   0  0  0  0  0  0  0  0  0  0  0  0
   25.9117   74.5474    6.9172 H   0  0  0  0  0  0  0  0  0  0  0  0
   22.4615   70.7624   -2.3198 O   0  0  0  0  0  0  0  0  0  0  0  0
   21.0387   70.6132   -1.5672 P   0  0  2  0  0  0  0  0  0  0  0  0
   20.6162   72.1454   -1.2652 O   0  0  0  0  0  0  0  0  0  0  0  0
   21.0739   69.7298   -0.3538 O   0  0  0  0  0  0  0  0  0  0  0  0
   20.0166   70.1279   -2.7183 O   0  0  0  0  0  0  0  0  0  0  0  0
   18.7132   71.7092   -3.9088 O   0  0  0  0  0  0  0  0  0  0  0  0
   16.4107   68.3415   -4.5476 O   0  0  0  0  0  0  0  0  0  0  0  0
   17.9542   69.4349   -6.7088 O   0  0  0  0  0  0  0  0  0  0  0  0
   17.6828   68.7553   -1.9805 O   0  0  0  0  0  0  0  0  0  0  0  0
   17.6256   69.0743   -4.3672 C   0  0  1  0  0  0  0  0  0  0  0  0
   17.7251   70.1193   -5.4802 C   0  0  1  0  0  0  0  0  0  0  0  0
   17.6028   69.7488   -2.9968 C   0  0  2  0  0  0  0  0  0  0  0  0
   18.8589   71.1161   -5.2044 C   0  0  1  0  0  0  0  0  0  0  0  0
   18.7437   70.7564   -2.8443 C   0  0  1  0  0  0  0  0  0  0  0  0
   16.4190   67.9104   -5.4157 H   0  0  0  0  0  0  0  0  0  0  0  0
   17.2314   68.8083   -6.8708 H   0  0  0  0  0  0  0  0  0  0  0  0
   16.9551   68.1238   -2.0879 H   0  0  0  0  0  0  0  0  0  0  0  0
   19.3681   71.7593   -7.4485 O   0  0  0  0  0  0  0  0  0  0  0  0
   18.8758   72.2579   -6.2184 C   0  0  0  0  0  0  0  0  0  0  0  0
   19.3842   72.4751   -8.1036 H   0  0  0  0  0  0  0  0  0  0  0  0
 25 28  1  0
 25 24  1  0
 25 26  1  1
 25 27  2  0
  1  4  1  0
  1 24  1  0
  1  2  1  6
  1  3  2  0
  6 11  1  0
  6 12  1  0
 29 36  1  0
 29 37  1  0
  9  7  1  1
  7 13  1  0
 10  8  1  1
  8 14  1  0
 37 28  1  6
  4  5  1  0
 33 30  1  6
 30 38  1  0
 34 31  1  6
 31 39  1  0
 35 32  1  1
 32 40  1  0
 41 42  1  0
 41 43  1  0
 15 19  2  0
 16 22  2  0
 12 17  1  6
 17 19  1  0
 17 20  1  0
 18 19  1  0
 18 22  1  0
 18 23  1  0
  9 10  1  0
  9 11  1  0
 10 12  1  0
 11  5  1  6
 33 34  1  0
 33 35  1  0
 34 36  1  0
 35 37  1  0
 36 42  1  6
 20 21  2  0
 21 22  1  0
M  CHG  2   2  -1  26  -1
M  END
>  <COMPND>  (141) 
    8629 

>  <AUTHOR>  (141) 
    GENERATED BY OPEN BABEL 3.1.1

>  <MASTER>  (141) 
        0    0    0    0    0    0    0    0   58    0   58    0

>  <minimizedAffinity>  (141) 
-7.65516

>  <CNNscore>  (141) 
0.7417230010

>  <CNNaffinity>  (141) 
4.4604172707

>  <CNN_VS>  (141) 
3.3083941936

>  <CNNaffinity_variance>  (141) 
0.0853502974

$$$$
142
     RDKit          3D

 43 45  0  0  0  0  0  0  0  0999 V2000
   24.1718   72.2290   -3.1528 P   0  0  2  0  0  0  0  0  0  0  0  0
   24.7743   73.5416   -3.8818 O   0  0  0  0  0  0  0  0  0  0  0  0
   25.1269   71.0784   -3.0287 O   0  0  0  0  0  0  0  0  0  0  0  0
   22.8070   71.9246   -3.9667 O   0  0  0  0  0  0  0  0  0  0  0  0
   22.2519   72.9552   -4.7653 C   0  0  0  0  0  0  0  0  0  0  0  0
   21.2057   71.0645   -5.8163 O   0  0  0  0  0  0  0  0  0  0  0  0
   20.7057   72.8767   -8.1523 O   0  0  0  0  0  0  0  0  0  0  0  0
   18.2821   72.8350   -6.9029 O   0  0  0  0  0  0  0  0  0  0  0  0
   20.6850   73.1761   -6.7575 C   0  0  1  0  0  0  0  0  0  0  0  0
   19.4347   72.6104   -6.1169 C   0  0  2  0  0  0  0  0  0  0  0  0
   21.7832   72.3607   -6.0863 C   0  0  1  0  0  0  0  0  0  0  0  0
   19.7819   71.1363   -5.9960 C   0  0  2  0  0  0  0  0  0  0  0  0
   20.0130   73.3861   -8.6024 H   0  0  0  0  0  0  0  0  0  0  0  0
   18.1029   73.7871   -6.9495 H   0  0  0  0  0  0  0  0  0  0  0  0
   17.2789   69.8329   -6.1149 O   0  0  0  0  0  0  0  0  0  0  0  0
   17.4089   68.7790   -1.6301 O   0  0  0  0  0  0  0  0  0  0  0  0
   19.1382   70.5122   -4.8746 N   0  0  0  0  0  0  0  0  0  0  0  0
   17.3457   69.3090   -3.8818 N   0  0  0  0  0  0  0  0  0  0  0  0
   17.8812   69.8854   -5.0407 C   0  0  0  0  0  0  0  0  0  0  0  0
   19.7530   70.5253   -3.6273 C   0  0  0  0  0  0  0  0  0  0  0  0
   19.2285   69.9722   -2.5318 C   0  0  0  0  0  0  0  0  0  0  0  0
   17.9176   69.2970   -2.6194 C   0  0  0  0  0  0  0  0  0  0  0  0
   16.4705   68.8670   -3.9734 H   0  0  0  0  0  0  0  0  0  0  0  0
   23.6328   72.8107   -1.7442 O   0  0  0  0  0  0  0  0  0  0  0  0
   22.5607   72.2161   -0.6907 P   0  0  2  0  0  0  0  0  0  0  0  0
   22.7647   70.6161   -0.8168 O   0  0  0  0  0  0  0  0  0  0  0  0
   21.1513   72.6806   -0.9186 O   0  0  0  0  0  0  0  0  0  0  0  0
   23.1621   72.5907    0.7595 O   0  0  0  0  0  0  0  0  0  0  0  0
   24.7892   71.4560    2.0562 O   0  0  0  0  0  0  0  0  0  0  0  0
   22.3543   72.8203    5.0994 O   0  0  0  0  0  0  0  0  0  0  0  0
   24.9279   74.0284    4.6930 O   0  0  0  0  0  0  0  0  0  0  0  0
   21.1837   71.8878    2.6216 O   0  0  0  0  0  0  0  0  0  0  0  0
   23.0139   72.8812    3.8319 C   0  0  1  0  0  0  0  0  0  0  0  0
   24.5232   72.8111    4.0728 C   0  0  1  0  0  0  0  0  0  0  0  0
   22.5516   71.7067    2.9716 C   0  0  2  0  0  0  0  0  0  0  0  0
   25.2851   72.6026    2.7571 C   0  0  1  0  0  0  0  0  0  0  0  0
   23.4063   71.5586    1.7116 C   0  0  1  0  0  0  0  0  0  0  0  0
   22.6431   73.5636    5.6504 H   0  0  0  0  0  0  0  0  0  0  0  0
   24.4391   74.1482    5.5224 H   0  0  0  0  0  0  0  0  0  0  0  0
   20.6532   71.9800    3.4278 H   0  0  0  0  0  0  0  0  0  0  0  0
   27.2627   71.5132    1.9754 O   0  0  0  0  0  0  0  0  0  0  0  0
   26.7766   72.3723    2.9902 C   0  0  0  0  0  0  0  0  0  0  0  0
   28.2110   71.3580    2.1108 H   0  0  0  0  0  0  0  0  0  0  0  0
 25 28  1  0
 25 24  1  0
 25 26  1  1
 25 27  2  0
  1  4  1  0
  1 24  1  0
  1  2  1  6
  1  3  2  0
  6 11  1  0
  6 12  1  0
 29 36  1  0
 29 37  1  0
  9  7  1  6
  7 13  1  0
 10  8  1  6
  8 14  1  0
 37 28  1  6
  4  5  1  0
 33 30  1  1
 30 38  1  0
 34 31  1  6
 31 39  1  0
 35 32  1  6
 32 40  1  0
 41 42  1  0
 41 43  1  0
 15 19  2  0
 16 22  2  0
 12 17  1  1
 17 19  1  0
 17 20  1  0
 18 19  1  0
 18 22  1  0
 18 23  1  0
  9 10  1  0
  9 11  1  0
 10 12  1  0
 11  5  1  1
 33 34  1  0
 33 35  1  0
 34 36  1  0
 35 37  1  0
 36 42  1  1
 20 21  2  0
 21 22  1  0
M  CHG  2   2  -1  26  -1
M  END
>  <COMPND>  (142) 
    8629 

>  <AUTHOR>  (142) 
    GENERATED BY OPEN BABEL 3.1.1

>  <MASTER>  (142) 
        0    0    0    0    0    0    0    0   58    0   58    0

>  <minimizedAffinity>  (142) 
-7.60501

>  <CNNscore>  (142) 
0.6916241050

>  <CNNaffinity>  (142) 
4.3251271248

>  <CNN_VS>  (142) 
2.9913620949

>  <CNNaffinity_variance>  (142) 
0.2210092247

$$$$
143
     RDKit          3D

 43 45  0  0  0  0  0  0  0  0999 V2000
   21.6279   72.8594   -6.4780 P   0  0  2  0  0  0  0  0  0  0  0  0
   20.4763   72.8461   -5.3417 O   0  0  0  0  0  0  0  0  0  0  0  0
   21.7248   74.1319   -7.2672 O   0  0  0  0  0  0  0  0  0  0  0  0
   21.3404   71.5194   -7.3380 O   0  0  0  0  0  0  0  0  0  0  0  0
   20.7509   70.4095   -6.6835 C   0  0  0  0  0  0  0  0  0  0  0  0
   18.6765   69.1970   -6.7045 O   0  0  0  0  0  0  0  0  0  0  0  0
   18.2660   70.3164   -9.4557 O   0  0  0  0  0  0  0  0  0  0  0  0
   16.6851   71.9213   -7.9190 O   0  0  0  0  0  0  0  0  0  0  0  0
   18.8676   70.9254   -8.3144 C   0  0  1  0  0  0  0  0  0  0  0  0
   17.8067   71.3175   -7.3072 C   0  0  2  0  0  0  0  0  0  0  0  0
   19.6395   69.8496   -7.5607 C   0  0  1  0  0  0  0  0  0  0  0  0
   17.4736   69.9819   -6.6643 C   0  0  2  0  0  0  0  0  0  0  0  0
   17.7676   70.9842   -9.9533 H   0  0  0  0  0  0  0  0  0  0  0  0
   16.9482   72.7676   -8.3132 H   0  0  0  0  0  0  0  0  0  0  0  0
   15.9855   68.0441   -5.2472 O   0  0  0  0  0  0  0  0  0  0  0  0
   15.9148   70.6245   -1.4291 O   0  0  0  0  0  0  0  0  0  0  0  0
   17.0531   70.1213   -5.2986 N   0  0  0  0  0  0  0  0  0  0  0  0
   15.9517   69.3305   -3.3472 N   0  0  0  0  0  0  0  0  0  0  0  0
   16.3087   69.0899   -4.6801 C   0  0  0  0  0  0  0  0  0  0  0  0
   17.3794   71.2705   -4.5868 C   0  0  0  0  0  0  0  0  0  0  0  0
   17.0302   71.4852   -3.3167 C   0  0  0  0  0  0  0  0  0  0  0  0
   16.2511   70.4568   -2.5973 C   0  0  0  0  0  0  0  0  0  0  0  0
   15.4323   68.6259   -2.8960 H   0  0  0  0  0  0  0  0  0  0  0  0
   22.9619   72.4793   -5.6479 O   0  0  0  0  0  0  0  0  0  0  0  0
   23.5584   73.0725   -4.2676 P   0  0  2  0  0  0  0  0  0  0  0  0
   23.0460   74.6071   -4.2712 O   0  0  0  0  0  0  0  0  0  0  0  0
   25.0444   72.9162   -4.1220 O   0  0  0  0  0  0  0  0  0  0  0  0
   22.6937   72.3567   -3.1079 O   0  0  0  0  0  0  0  0  0  0  0  0
   23.8720   70.7248   -1.8568 O   0  0  0  0  0  0  0  0  0  0  0  0
   20.0222   69.8058   -0.6797 O   0  0  0  0  0  0  0  0  0  0  0  0
   21.7986   71.1016    1.1678 O   0  0  0  0  0  0  0  0  0  0  0  0
   20.5498   70.5732   -3.4206 O   0  0  0  0  0  0  0  0  0  0  0  0
   21.0930   70.6671   -1.0759 C   0  0  1  0  0  0  0  0  0  0  0  0
   22.2277   70.5200   -0.0602 C   0  0  1  0  0  0  0  0  0  0  0  0
   21.5658   70.2660   -2.4720 C   0  0  2  0  0  0  0  0  0  0  0  0
   23.5082   71.2045   -0.5571 C   0  0  1  0  0  0  0  0  0  0  0  0
   22.8724   70.9666   -2.8489 C   0  0  1  0  0  0  0  0  0  0  0  0
   19.7171   70.0555    0.2057 H   0  0  0  0  0  0  0  0  0  0  0  0
   20.9891   70.6608    1.4703 H   0  0  0  0  0  0  0  0  0  0  0  0
   19.7279   70.1236   -3.1711 H   0  0  0  0  0  0  0  0  0  0  0  0
   24.3132   69.9593    1.3165 O   0  0  0  0  0  0  0  0  0  0  0  0
   24.6950   70.9363    0.3657 C   0  0  0  0  0  0  0  0  0  0  0  0
   25.0590   69.7783    1.9105 H   0  0  0  0  0  0  0  0  0  0  0  0
 25 28  1  0
 25 24  1  0
 25 26  1  6
 25 27  2  0
  1  4  1  0
  1 24  1  0
  1  2  1  1
  1  3  2  0
  6 11  1  0
  6 12  1  0
 29 36  1  0
 29 37  1  0
  9  7  1  6
  7 13  1  0
 10  8  1  6
  8 14  1  0
 37 28  1  1
  4  5  1  0
 33 30  1  1
 30 38  1  0
 34 31  1  1
 31 39  1  0
 35 32  1  6
 32 40  1  0
 41 42  1  0
 41 43  1  0
 15 19  2  0
 16 22  2  0
 12 17  1  1
 17 19  1  0
 17 20  1  0
 18 19  1  0
 18 22  1  0
 18 23  1  0
  9 10  1  0
  9 11  1  0
 10 12  1  0
 11  5  1  1
 33 34  1  0
 33 35  1  0
 34 36  1  0
 35 37  1  0
 36 42  1  1
 20 21  2  0
 21 22  1  0
M  CHG  2   2  -1  26  -1
M  END
>  <COMPND>  (143) 
    8629 

>  <AUTHOR>  (143) 
    GENERATED BY OPEN BABEL 3.1.1

>  <MASTER>  (143) 
        0    0    0    0    0    0    0    0   58    0   58    0

>  <minimizedAffinity>  (143) 
-7.71176

>  <CNNscore>  (143) 
0.6271358728

>  <CNNaffinity>  (143) 
4.4770660400

>  <CNN_VS>  (143) 
2.8077287674

>  <CNNaffinity_variance>  (143) 
0.2478792965

$$$$
144
     RDKit          3D

 43 45  0  0  0  0  0  0  0  0999 V2000
   21.4998   71.0689    0.5965 P   0  0  2  0  0  0  0  0  0  0  0  0
   21.7251   69.4669    0.5748 O   0  0  0  0  0  0  0  0  0  0  0  0
   20.8393   71.5993    1.8350 O   0  0  0  0  0  0  0  0  0  0  0  0
   20.7309   71.3718   -0.7945 O   0  0  0  0  0  0  0  0  0  0  0  0
   20.8962   70.4642   -1.8700 C   0  0  0  0  0  0  0  0  0  0  0  0
   21.7076   70.4339   -4.1315 O   0  0  0  0  0  0  0  0  0  0  0  0
   23.1069   73.0009   -3.4658 O   0  0  0  0  0  0  0  0  0  0  0  0
   20.9130   73.8588   -4.8398 O   0  0  0  0  0  0  0  0  0  0  0  0
   21.8350   72.5266   -3.0269 C   0  0  1  0  0  0  0  0  0  0  0  0
   20.8200   72.6313   -4.1460 C   0  0  2  0  0  0  0  0  0  0  0  0
   21.9384   71.0191   -2.8313 C   0  0  1  0  0  0  0  0  0  0  0  0
   21.1848   71.4396   -5.0148 C   0  0  2  0  0  0  0  0  0  0  0  0
   23.0657   73.9617   -3.5972 H   0  0  0  0  0  0  0  0  0  0  0  0
   20.6713   74.5857   -4.2449 H   0  0  0  0  0  0  0  0  0  0  0  0
   21.3328   70.0500   -7.4694 O   0  0  0  0  0  0  0  0  0  0  0  0
   16.7681   69.4274   -7.6020 O   0  0  0  0  0  0  0  0  0  0  0  0
   20.0506   70.9031   -5.7128 N   0  0  0  0  0  0  0  0  0  0  0  0
   19.0598   69.7410   -7.5333 N   0  0  0  0  0  0  0  0  0  0  0  0
   20.2333   70.2230   -6.9394 C   0  0  0  0  0  0  0  0  0  0  0  0
   18.7747   71.0534   -5.1806 C   0  0  0  0  0  0  0  0  0  0  0  0
   17.6657   70.5890   -5.7601 C   0  0  0  0  0  0  0  0  0  0  0  0
   17.7692   69.8663   -7.0443 C   0  0  0  0  0  0  0  0  0  0  0  0
   19.1626   69.2641   -8.3888 H   0  0  0  0  0  0  0  0  0  0  0  0
   22.9841   71.6484    0.3248 O   0  0  0  0  0  0  0  0  0  0  0  0
   23.5482   73.1633    0.3220 P   0  0  2  0  0  0  0  0  0  0  0  0
   22.2048   74.0592    0.2207 O   0  0  0  0  0  0  0  0  0  0  0  0
   24.5602   73.4411   -0.7515 O   0  0  0  0  0  0  0  0  0  0  0  0
   24.0850   73.4021    1.8253 O   0  0  0  0  0  0  0  0  0  0  0  0
   25.8913   72.1678    2.7365 O   0  0  0  0  0  0  0  0  0  0  0  0
   23.9670   73.2047    6.2397 O   0  0  0  0  0  0  0  0  0  0  0  0
   26.4492   74.4768    5.5553 O   0  0  0  0  0  0  0  0  0  0  0  0
   22.4201   72.5003    3.8965 O   0  0  0  0  0  0  0  0  0  0  0  0
   24.4204   73.3948    4.8967 C   0  0  1  0  0  0  0  0  0  0  0  0
   25.9485   73.3199    4.8912 C   0  0  1  0  0  0  0  0  0  0  0  0
   23.8253   72.3028    4.0097 C   0  0  2  0  0  0  0  0  0  0  0  0
   26.4944   73.2477    3.4588 C   0  0  1  0  0  0  0  0  0  0  0  0
   24.4718   72.2864    2.6234 C   0  0  1  0  0  0  0  0  0  0  0  0
   24.3408   73.8952    6.8080 H   0  0  0  0  0  0  0  0  0  0  0  0
   26.0966   74.5108    6.4585 H   0  0  0  0  0  0  0  0  0  0  0  0
   22.0226   72.5084    4.7807 H   0  0  0  0  0  0  0  0  0  0  0  0
   28.6453   74.1648    3.9502 O   0  0  0  0  0  0  0  0  0  0  0  0
   28.0033   73.0139    3.4330 C   0  0  0  0  0  0  0  0  0  0  0  0
   29.6063   74.0303    3.9401 H   0  0  0  0  0  0  0  0  0  0  0  0
 25 28  1  0
 25 24  1  0
 25 26  1  6
 25 27  2  0
  1  4  1  0
  1 24  1  0
  1  2  1  1
  1  3  2  0
  6 11  1  0
  6 12  1  0
 29 36  1  0
 29 37  1  0
  9  7  1  6
  7 13  1  0
 10  8  1  6
  8 14  1  0
 37 28  1  1
  4  5  1  0
 33 30  1  1
 30 38  1  0
 34 31  1  6
 31 39  1  0
 35 32  1  6
 32 40  1  0
 41 42  1  0
 41 43  1  0
 15 19  2  0
 16 22  2  0
 12 17  1  1
 17 19  1  0
 17 20  1  0
 18 19  1  0
 18 22  1  0
 18 23  1  0
  9 10  1  0
  9 11  1  0
 10 12  1  0
 11  5  1  1
 33 34  1  0
 33 35  1  0
 34 36  1  0
 35 37  1  0
 36 42  1  1
 20 21  2  0
 21 22  1  0
M  CHG  2   2  -1  26  -1
M  END
>  <COMPND>  (144) 
    8629 

>  <AUTHOR>  (144) 
    GENERATED BY OPEN BABEL 3.1.1

>  <MASTER>  (144) 
        0    0    0    0    0    0    0    0   58    0   58    0

>  <minimizedAffinity>  (144) 
-6.51020

>  <CNNscore>  (144) 
0.6137461066

>  <CNNaffinity>  (144) 
4.1872987747

>  <CNN_VS>  (144) 
2.5699384212

>  <CNNaffinity_variance>  (144) 
0.0196328573

$$$$
145
     RDKit          3D

 43 45  0  0  0  0  0  0  0  0999 V2000
   21.5162   71.9003   -1.1405 P   0  0  2  0  0  0  0  0  0  0  0  0
   20.2672   70.8989   -0.9067 O   0  0  0  0  0  0  0  0  0  0  0  0
   21.2633   73.3290   -0.7578 O   0  0  0  0  0  0  0  0  0  0  0  0
   21.9317   71.6494   -2.6839 O   0  0  0  0  0  0  0  0  0  0  0  0
   21.9706   72.7601   -3.5628 C   0  0  0  0  0  0  0  0  0  0  0  0
   21.6054   71.0243   -5.1837 O   0  0  0  0  0  0  0  0  0  0  0  0
   22.6141   72.9758   -7.2245 O   0  0  0  0  0  0  0  0  0  0  0  0
   19.9111   73.1085   -7.5603 O   0  0  0  0  0  0  0  0  0  0  0  0
   21.8227   73.2146   -6.0618 C   0  0  1  0  0  0  0  0  0  0  0  0
   20.4016   72.7421   -6.2868 C   0  0  2  0  0  0  0  0  0  0  0  0
   22.3020   72.2708   -4.9660 C   0  0  1  0  0  0  0  0  0  0  0  0
   20.5403   71.2379   -6.1243 C   0  0  2  0  0  0  0  0  0  0  0  0
   22.3267   73.5675   -7.9382 H   0  0  0  0  0  0  0  0  0  0  0  0
   19.8407   74.0744   -7.6143 H   0  0  0  0  0  0  0  0  0  0  0  0
   18.7933   69.6360   -7.6604 O   0  0  0  0  0  0  0  0  0  0  0  0
   15.9737   68.9549   -4.0789 O   0  0  0  0  0  0  0  0  0  0  0  0
   19.3424   70.6290   -5.6185 N   0  0  0  0  0  0  0  0  0  0  0  0
   17.3908   69.2980   -5.8758 N   0  0  0  0  0  0  0  0  0  0  0  0
   18.5342   69.8438   -6.4733 C   0  0  0  0  0  0  0  0  0  0  0  0
   18.9801   70.8126   -4.2885 C   0  0  0  0  0  0  0  0  0  0  0  0
   17.8858   70.2863   -3.7345 C   0  0  0  0  0  0  0  0  0  0  0  0
   16.9873   69.4528   -4.5590 C   0  0  0  0  0  0  0  0  0  0  0  0
   16.8124   68.7476   -6.4522 H   0  0  0  0  0  0  0  0  0  0  0  0
   22.7129   71.1862   -0.3214 O   0  0  0  0  0  0  0  0  0  0  0  0
   24.2489   71.6302   -0.0834 P   0  0  2  0  0  0  0  0  0  0  0  0
   24.4868   72.7634   -1.2133 O   0  0  0  0  0  0  0  0  0  0  0  0
   25.2312   70.4958   -0.1276 O   0  0  0  0  0  0  0  0  0  0  0  0
   24.2278   72.4429    1.3109 O   0  0  0  0  0  0  0  0  0  0  0  0
   25.4634   72.1348    3.3096 O   0  0  0  0  0  0  0  0  0  0  0  0
   21.8260   73.2100    4.9417 O   0  0  0  0  0  0  0  0  0  0  0  0
   24.0179   75.0641    5.0181 O   0  0  0  0  0  0  0  0  0  0  0  0
   21.9119   71.5157    2.5962 O   0  0  0  0  0  0  0  0  0  0  0  0
   22.8794   73.2376    3.9748 C   0  0  1  0  0  0  0  0  0  0  0  0
   24.1623   73.6885    4.6759 C   0  0  1  0  0  0  0  0  0  0  0  0
   23.0521   71.8392    3.3848 C   0  0  2  0  0  0  0  0  0  0  0  0
   25.3869   73.4880    3.7730 C   0  0  1  0  0  0  0  0  0  0  0  0
   24.3255   71.7344    2.5437 C   0  0  1  0  0  0  0  0  0  0  0  0
   21.7108   74.0951    5.3198 H   0  0  0  0  0  0  0  0  0  0  0  0
   23.2409   75.1770    5.5879 H   0  0  0  0  0  0  0  0  0  0  0  0
   21.1124   71.5855    3.1401 H   0  0  0  0  0  0  0  0  0  0  0  0
   27.5983   72.7233    4.2566 O   0  0  0  0  0  0  0  0  0  0  0  0
   26.6931   73.7827    4.5071 C   0  0  0  0  0  0  0  0  0  0  0  0
   28.4344   72.8975    4.7174 H   0  0  0  0  0  0  0  0  0  0  0  0
 25 28  1  0
 25 24  1  0
 25 26  1  6
 25 27  2  0
  1  4  1  0
  1 24  1  0
  1  2  1  1
  1  3  2  0
  6 11  1  0
  6 12  1  0
 29 36  1  0
 29 37  1  0
  9  7  1  6
  7 13  1  0
 10  8  1  6
  8 14  1  0
 37 28  1  6
  4  5  1  0
 33 30  1  1
 30 38  1  0
 34 31  1  6
 31 39  1  0
 35 32  1  6
 32 40  1  0
 41 42  1  0
 41 43  1  0
 15 19  2  0
 16 22  2  0
 12 17  1  1
 17 19  1  0
 17 20  1  0
 18 19  1  0
 18 22  1  0
 18 23  1  0
  9 10  1  0
  9 11  1  0
 10 12  1  0
 11  5  1  1
 33 34  1  0
 33 35  1  0
 34 36  1  0
 35 37  1  0
 36 42  1  1
 20 21  2  0
 21 22  1  0
M  CHG  2   2  -1  26  -1
M  END
>  <COMPND>  (145) 
    8629 

>  <AUTHOR>  (145) 
    GENERATED BY OPEN BABEL 3.1.1

>  <MASTER>  (145) 
        0    0    0    0    0    0    0    0   58    0   58    0

>  <minimizedAffinity>  (145) 
-6.33730

>  <CNNscore>  (145) 
0.5967223048

>  <CNNaffinity>  (145) 
4.2316594124

>  <CNN_VS>  (145) 
2.5251255035

>  <CNNaffinity_variance>  (145) 
0.0182325691

$$$$
146
     RDKit          3D

 43 45  0  0  0  0  0  0  0  0999 V2000
   20.3556   72.6059   -0.2925 P   0  0  2  0  0  0  0  0  0  0  0  0
   19.5993   74.0351   -0.2393 O   0  0  0  0  0  0  0  0  0  0  0  0
   20.5542   71.9440    1.0394 O   0  0  0  0  0  0  0  0  0  0  0  0
   21.7037   72.9109   -1.1335 O   0  0  0  0  0  0  0  0  0  0  0  0
   22.7281   73.6710   -0.5166 C   0  0  0  0  0  0  0  0  0  0  0  0
   24.8976   73.2571    0.4297 O   0  0  0  0  0  0  0  0  0  0  0  0
   25.0585   70.9158   -1.4365 O   0  0  0  0  0  0  0  0  0  0  0  0
   24.3998   69.7415    0.9349 O   0  0  0  0  0  0  0  0  0  0  0  0
   23.9282   71.4389   -0.7407 C   0  0  1  0  0  0  0  0  0  0  0  0
   24.0045   71.0825    0.7292 C   0  0  2  0  0  0  0  0  0  0  0  0
   24.0589   72.9565   -0.7072 C   0  0  1  0  0  0  0  0  0  0  0  0
   25.0296   72.0795    1.2424 C   0  0  2  0  0  0  0  0  0  0  0  0
   24.9971   69.9478   -1.4711 H   0  0  0  0  0  0  0  0  0  0  0  0
   23.7152   69.1462    0.5919 H   0  0  0  0  0  0  0  0  0  0  0  0
   26.9609   73.2950    2.9068 O   0  0  0  0  0  0  0  0  0  0  0  0
   24.0724   73.3925    6.4968 O   0  0  0  0  0  0  0  0  0  0  0  0
   24.8090   72.4338    2.6162 N   0  0  0  0  0  0  0  0  0  0  0  0
   25.5210   73.3427    4.6930 N   0  0  0  0  0  0  0  0  0  0  0  0
   25.8452   73.0393    3.3645 C   0  0  0  0  0  0  0  0  0  0  0  0
   23.5760   72.1809    3.2076 C   0  0  0  0  0  0  0  0  0  0  0  0
   23.2833   72.4752    4.4761 C   0  0  0  0  0  0  0  0  0  0  0  0
   24.3107   73.1098    5.3267 C   0  0  0  0  0  0  0  0  0  0  0  0
   26.2276   73.7648    5.2337 H   0  0  0  0  0  0  0  0  0  0  0  0
   19.4591   71.7590   -1.3375 O   0  0  0  0  0  0  0  0  0  0  0  0
   19.7122   70.3211   -2.0313 P   0  0  2  0  0  0  0  0  0  0  0  0
   18.5018   69.4139   -1.4572 O   0  0  0  0  0  0  0  0  0  0  0  0
   21.0806   69.7531   -1.7888 O   0  0  0  0  0  0  0  0  0  0  0  0
   19.3485   70.5486   -3.5873 O   0  0  0  0  0  0  0  0  0  0  0  0
   18.0382   72.2342   -4.6161 O   0  0  0  0  0  0  0  0  0  0  0  0
   16.9997   69.0362   -7.0130 O   0  0  0  0  0  0  0  0  0  0  0  0
   18.7139   71.0913   -8.0550 O   0  0  0  0  0  0  0  0  0  0  0  0
   17.3661   68.6491   -4.1677 O   0  0  0  0  0  0  0  0  0  0  0  0
   17.8736   69.8292   -6.2051 C   0  0  1  0  0  0  0  0  0  0  0  0
   17.9835   71.2178   -6.8381 C   0  0  1  0  0  0  0  0  0  0  0  0
   17.2980   69.9259   -4.7935 C   0  0  2  0  0  0  0  0  0  0  0  0
   18.6851   72.2032   -5.8937 C   0  0  1  0  0  0  0  0  0  0  0  0
   18.0365   70.9686   -3.9525 C   0  0  1  0  0  0  0  0  0  0  0  0
   17.3597   68.9704   -7.9105 H   0  0  0  0  0  0  0  0  0  0  0  0
   18.2606   70.4660   -8.6421 H   0  0  0  0  0  0  0  0  0  0  0  0
   16.8947   67.9980   -4.7096 H   0  0  0  0  0  0  0  0  0  0  0  0
   17.4980   73.7957   -7.2218 O   0  0  0  0  0  0  0  0  0  0  0  0
   18.6655   73.6297   -6.4384 C   0  0  0  0  0  0  0  0  0  0  0  0
   17.4720   74.6992   -7.5748 H   0  0  0  0  0  0  0  0  0  0  0  0
 25 28  1  0
 25 24  1  0
 25 26  1  1
 25 27  2  0
  1  4  1  0
  1 24  1  0
  1  2  1  1
  1  3  2  0
  6 11  1  0
  6 12  1  0
 29 36  1  0
 29 37  1  0
  9  7  1  6
  7 13  1  0
 10  8  1  6
  8 14  1  0
 37 28  1  6
  4  5  1  0
 33 30  1  6
 30 38  1  0
 34 31  1  6
 31 39  1  0
 35 32  1  1
 32 40  1  0
 41 42  1  0
 41 43  1  0
 15 19  2  0
 16 22  2  0
 12 17  1  1
 17 19  1  0
 17 20  1  0
 18 19  1  0
 18 22  1  0
 18 23  1  0
  9 10  1  0
  9 11  1  0
 10 12  1  0
 11  5  1  1
 33 34  1  0
 33 35  1  0
 34 36  1  0
 35 37  1  0
 36 42  1  6
 20 21  2  0
 21 22  1  0
M  CHG  2   2  -1  26  -1
M  END
>  <COMPND>  (146) 
    8629 

>  <AUTHOR>  (146) 
    GENERATED BY OPEN BABEL 3.1.1

>  <MASTER>  (146) 
        0    0    0    0    0    0    0    0   58    0   58    0

>  <minimizedAffinity>  (146) 
-6.95605

>  <CNNscore>  (146) 
0.5842100978

>  <CNNaffinity>  (146) 
4.2173781395

>  <CNN_VS>  (146) 
2.4638350010

>  <CNNaffinity_variance>  (146) 
0.1879143417

$$$$
147
     RDKit          3D

 43 45  0  0  0  0  0  0  0  0999 V2000
   20.7955   70.9790   -1.3900 P   0  0  2  0  0  0  0  0  0  0  0  0
   21.7576   70.3845   -2.5469 O   0  0  0  0  0  0  0  0  0  0  0  0
   20.3288   72.3871   -1.6154 O   0  0  0  0  0  0  0  0  0  0  0  0
   21.6260   70.7241   -0.0251 O   0  0  0  0  0  0  0  0  0  0  0  0
   22.1734   71.8419    0.6521 C   0  0  0  0  0  0  0  0  0  0  0  0
   22.8172   71.4424    2.9324 O   0  0  0  0  0  0  0  0  0  0  0  0
   20.3637   72.9862    3.6991 O   0  0  0  0  0  0  0  0  0  0  0  0
   22.3504   74.8245    4.0309 O   0  0  0  0  0  0  0  0  0  0  0  0
   21.2528   73.1916    2.6025 C   0  0  1  0  0  0  0  0  0  0  0  0
   22.5555   73.7928    3.0873 C   0  0  2  0  0  0  0  0  0  0  0  0
   21.7009   71.8251    2.0994 C   0  0  1  0  0  0  0  0  0  0  0  0
   23.2568   72.5849    3.6850 C   0  0  2  0  0  0  0  0  0  0  0  0
   20.0637   73.8451    4.0371 H   0  0  0  0  0  0  0  0  0  0  0  0
   21.9015   75.5700    3.6025 H   0  0  0  0  0  0  0  0  0  0  0  0
   24.8865   73.9438    5.5493 O   0  0  0  0  0  0  0  0  0  0  0  0
   28.7298   72.8897    3.2343 O   0  0  0  0  0  0  0  0  0  0  0  0
   24.6865   72.6811    3.5941 N   0  0  0  0  0  0  0  0  0  0  0  0
   26.7988   73.4177    4.3952 N   0  0  0  0  0  0  0  0  0  0  0  0
   25.4110   73.3875    4.5823 C   0  0  0  0  0  0  0  0  0  0  0  0
   25.3556   72.0787    2.5343 C   0  0  0  0  0  0  0  0  0  0  0  0
   26.6794   72.1178    2.3696 C   0  0  0  0  0  0  0  0  0  0  0  0
   27.5101   72.8357    3.3578 C   0  0  0  0  0  0  0  0  0  0  0  0
   27.3242   73.9045    5.0711 H   0  0  0  0  0  0  0  0  0  0  0  0
   19.6103   69.8831   -1.3042 O   0  0  0  0  0  0  0  0  0  0  0  0
   18.1859   69.7983   -2.0636 P   0  0  2  0  0  0  0  0  0  0  0  0
   17.4879   71.2124   -1.7021 O   0  0  0  0  0  0  0  0  0  0  0  0
   17.3667   68.5932   -1.7024 O   0  0  0  0  0  0  0  0  0  0  0  0
   18.5514   69.9131   -3.6315 O   0  0  0  0  0  0  0  0  0  0  0  0
   18.5789   71.9135   -4.9021 O   0  0  0  0  0  0  0  0  0  0  0  0
   17.5902   69.2448   -7.8941 O   0  0  0  0  0  0  0  0  0  0  0  0
   20.2218   70.3934   -7.8311 O   0  0  0  0  0  0  0  0  0  0  0  0
   16.4802   68.9158   -5.2410 O   0  0  0  0  0  0  0  0  0  0  0  0
   18.2418   69.6768   -6.6965 C   0  0  1  0  0  0  0  0  0  0  0  0
   19.1361   70.8696   -7.0407 C   0  0  1  0  0  0  0  0  0  0  0  0
   17.1843   70.0765   -5.6692 C   0  0  2  0  0  0  0  0  0  0  0  0
   19.6596   71.5541   -5.7708 C   0  0  1  0  0  0  0  0  0  0  0  0
   17.8054   70.7928   -4.4687 C   0  0  1  0  0  0  0  0  0  0  0  0
   18.2561   68.9892   -8.5504 H   0  0  0  0  0  0  0  0  0  0  0  0
   19.8776   69.9630   -8.6296 H   0  0  0  0  0  0  0  0  0  0  0  0
   16.0915   68.4715   -6.0100 H   0  0  0  0  0  0  0  0  0  0  0  0
   19.9843   73.3254   -7.3412 O   0  0  0  0  0  0  0  0  0  0  0  0
   20.4238   72.8380   -6.0867 C   0  0  0  0  0  0  0  0  0  0  0  0
   20.4619   74.1426   -7.5552 H   0  0  0  0  0  0  0  0  0  0  0  0
 25 28  1  0
 25 24  1  0
 25 26  1  1
 25 27  2  0
  1  4  1  0
  1 24  1  0
  1  2  1  6
  1  3  2  0
  6 11  1  0
  6 12  1  0
 29 36  1  0
 29 37  1  0
  9  7  1  1
  7 13  1  0
 10  8  1  1
  8 14  1  0
 37 28  1  6
  4  5  1  0
 33 30  1  6
 30 38  1  0
 34 31  1  6
 31 39  1  0
 35 32  1  1
 32 40  1  0
 41 42  1  0
 41 43  1  0
 15 19  2  0
 16 22  2  0
 12 17  1  6
 17 19  1  0
 17 20  1  0
 18 19  1  0
 18 22  1  0
 18 23  1  0
  9 10  1  0
  9 11  1  0
 10 12  1  0
 11  5  1  6
 33 34  1  0
 33 35  1  0
 34 36  1  0
 35 37  1  0
 36 42  1  6
 20 21  2  0
 21 22  1  0
M  CHG  2   2  -1  26  -1
M  END
>  <COMPND>  (147) 
    8629 

>  <AUTHOR>  (147) 
    GENERATED BY OPEN BABEL 3.1.1

>  <MASTER>  (147) 
        0    0    0    0    0    0    0    0   58    0   58    0

>  <minimizedAffinity>  (147) 
-6.67872

>  <CNNscore>  (147) 
0.5207949877

>  <CNNaffinity>  (147) 
4.1206111908

>  <CNN_VS>  (147) 
2.1459937096

>  <CNNaffinity_variance>  (147) 
0.1665670723

$$$$
148
     RDKit          3D

 43 45  0  0  0  0  0  0  0  0999 V2000
   19.9114   71.5625   -2.0562 P   0  0  2  0  0  0  0  0  0  0  0  0
   20.6791   70.9016   -3.3177 O   0  0  0  0  0  0  0  0  0  0  0  0
   19.1910   72.8446   -2.3536 O   0  0  0  0  0  0  0  0  0  0  0  0
   21.0495   71.6458   -0.9091 O   0  0  0  0  0  0  0  0  0  0  0  0
   21.7624   72.8601   -0.7509 C   0  0  0  0  0  0  0  0  0  0  0  0
   23.9440   73.2075    0.1944 O   0  0  0  0  0  0  0  0  0  0  0  0
   24.8444   70.9141   -1.5144 O   0  0  0  0  0  0  0  0  0  0  0  0
   24.5631   69.7539    0.9374 O   0  0  0  0  0  0  0  0  0  0  0  0
   23.6010   71.1038   -0.8411 C   0  0  1  0  0  0  0  0  0  0  0  0
   23.7711   70.8878    0.6482 C   0  0  2  0  0  0  0  0  0  0  0  0
   23.2514   72.5852   -0.9098 C   0  0  1  0  0  0  0  0  0  0  0  0
   24.4292   72.1867    1.0817 C   0  0  2  0  0  0  0  0  0  0  0  0
   25.0883   69.9752   -1.4840 H   0  0  0  0  0  0  0  0  0  0  0  0
   24.1016   68.9533    0.6429 H   0  0  0  0  0  0  0  0  0  0  0  0
   22.0470   71.4250    2.3942 O   0  0  0  0  0  0  0  0  0  0  0  0
   23.2584   73.6217    6.2605 O   0  0  0  0  0  0  0  0  0  0  0  0
   24.0965   72.5453    2.4315 N   0  0  0  0  0  0  0  0  0  0  0  0
   22.6522   72.5192    4.3183 N   0  0  0  0  0  0  0  0  0  0  0  0
   22.8742   72.1125    2.9964 C   0  0  0  0  0  0  0  0  0  0  0  0
   24.9776   73.3176    3.1806 C   0  0  0  0  0  0  0  0  0  0  0  0
   24.7504   73.6981    4.4395 C   0  0  0  0  0  0  0  0  0  0  0  0
   23.4965   73.2878    5.1039 C   0  0  0  0  0  0  0  0  0  0  0  0
   21.8070   72.2297    4.7324 H   0  0  0  0  0  0  0  0  0  0  0  0
   18.9614   70.3613   -1.5389 O   0  0  0  0  0  0  0  0  0  0  0  0
   17.5031   69.8721   -2.0359 P   0  0  2  0  0  0  0  0  0  0  0  0
   16.5202   71.0469   -1.5150 O   0  0  0  0  0  0  0  0  0  0  0  0
   17.1241   68.4959   -1.5707 O   0  0  0  0  0  0  0  0  0  0  0  0
   17.5371   70.0502   -3.6397 O   0  0  0  0  0  0  0  0  0  0  0  0
   17.0789   72.1319   -4.6756 O   0  0  0  0  0  0  0  0  0  0  0  0
   16.1349   69.6137   -7.8090 O   0  0  0  0  0  0  0  0  0  0  0  0
   18.5366   71.1841   -7.9261 O   0  0  0  0  0  0  0  0  0  0  0  0
   15.4539   68.8628   -5.0975 O   0  0  0  0  0  0  0  0  0  0  0  0
   16.8636   70.0411   -6.6550 C   0  0  1  0  0  0  0  0  0  0  0  0
   17.5043   71.3950   -6.9668 C   0  0  1  0  0  0  0  0  0  0  0  0
   15.9025   70.1604   -5.4737 C   0  0  2  0  0  0  0  0  0  0  0  0
   18.0774   72.0418   -5.6986 C   0  0  1  0  0  0  0  0  0  0  0  0
   16.5568   70.8614   -4.2818 C   0  0  1  0  0  0  0  0  0  0  0  0
   16.7395   69.5355   -8.5626 H   0  0  0  0  0  0  0  0  0  0  0  0
   18.1616   70.7748   -8.7217 H   0  0  0  0  0  0  0  0  0  0  0  0
   15.0414   68.4297   -5.8605 H   0  0  0  0  0  0  0  0  0  0  0  0
   17.8923   73.9836   -7.0786 O   0  0  0  0  0  0  0  0  0  0  0  0
   18.5803   73.4604   -5.9573 C   0  0  0  0  0  0  0  0  0  0  0  0
   18.2019   74.8862   -7.2548 H   0  0  0  0  0  0  0  0  0  0  0  0
 25 28  1  0
 25 24  1  0
 25 26  1  1
 25 27  2  0
  1  4  1  0
  1 24  1  0
  1  2  1  6
  1  3  2  0
  6 11  1  0
  6 12  1  0
 29 36  1  0
 29 37  1  0
  9  7  1  6
  7 13  1  0
 10  8  1  6
  8 14  1  0
 37 28  1  6
  4  5  1  0
 33 30  1  6
 30 38  1  0
 34 31  1  6
 31 39  1  0
 35 32  1  1
 32 40  1  0
 41 42  1  0
 41 43  1  0
 15 19  2  0
 16 22  2  0
 12 17  1  1
 17 19  1  0
 17 20  1  0
 18 19  1  0
 18 22  1  0
 18 23  1  0
  9 10  1  0
  9 11  1  0
 10 12  1  0
 11  5  1  1
 33 34  1  0
 33 35  1  0
 34 36  1  0
 35 37  1  0
 36 42  1  6
 20 21  2  0
 21 22  1  0
M  CHG  2   2  -1  26  -1
M  END
>  <COMPND>  (148) 
    8629 

>  <AUTHOR>  (148) 
    GENERATED BY OPEN BABEL 3.1.1

>  <MASTER>  (148) 
        0    0    0    0    0    0    0    0   58    0   58    0

>  <minimizedAffinity>  (148) 
-7.53070

>  <CNNscore>  (148) 
0.5117494464

>  <CNNaffinity>  (148) 
4.2170848846

>  <CNN_VS>  (148) 
2.1580908298

>  <CNNaffinity_variance>  (148) 
0.2959273756

$$$$
149
     RDKit          3D

 43 45  0  0  0  0  0  0  0  0999 V2000
   18.1924   70.1163   -2.2126 P   0  0  2  0  0  0  0  0  0  0  0  0
   17.5507   68.7843   -1.5558 O   0  0  0  0  0  0  0  0  0  0  0  0
   17.5037   71.3982   -1.8466 O   0  0  0  0  0  0  0  0  0  0  0  0
   18.2544   69.7786   -3.7937 O   0  0  0  0  0  0  0  0  0  0  0  0
   17.2095   69.0086   -4.3621 C   0  0  0  0  0  0  0  0  0  0  0  0
   17.0920   71.1330   -5.4788 O   0  0  0  0  0  0  0  0  0  0  0  0
   14.9429   69.9112   -7.1758 O   0  0  0  0  0  0  0  0  0  0  0  0
   17.1273   69.7888   -8.8037 O   0  0  0  0  0  0  0  0  0  0  0  0
   16.1219   69.3106   -6.6422 C   0  0  1  0  0  0  0  0  0  0  0  0
   17.3425   69.7782   -7.4071 C   0  0  2  0  0  0  0  0  0  0  0  0
   16.3662   69.9034   -5.2601 C   0  0  1  0  0  0  0  0  0  0  0  0
   17.5568   71.1704   -6.8380 C   0  0  2  0  0  0  0  0  0  0  0  0
   14.7663   69.5480   -8.0583 H   0  0  0  0  0  0  0  0  0  0  0  0
   16.9964   68.8805   -9.1177 H   0  0  0  0  0  0  0  0  0  0  0  0
   18.4718   73.8183   -6.4785 O   0  0  0  0  0  0  0  0  0  0  0  0
   22.8817   72.5455   -6.8957 O   0  0  0  0  0  0  0  0  0  0  0  0
   18.9388   71.5594   -6.8476 N   0  0  0  0  0  0  0  0  0  0  0  0
   20.6669   73.1824   -6.6863 N   0  0  0  0  0  0  0  0  0  0  0  0
   19.2920   72.9158   -6.6587 C   0  0  0  0  0  0  0  0  0  0  0  0
   19.9271   70.6007   -7.0425 C   0  0  0  0  0  0  0  0  0  0  0  0
   21.2338   70.8714   -7.0674 C   0  0  0  0  0  0  0  0  0  0  0  0
   21.6873   72.2644   -6.8779 C   0  0  0  0  0  0  0  0  0  0  0  0
   20.9366   74.1206   -6.5573 H   0  0  0  0  0  0  0  0  0  0  0  0
   19.7426   70.0331   -1.7622 O   0  0  0  0  0  0  0  0  0  0  0  0
   20.5802   70.8896   -0.6769 P   0  0  2  0  0  0  0  0  0  0  0  0
   21.2203   69.7523    0.2793 O   0  0  0  0  0  0  0  0  0  0  0  0
   19.7697   71.9243    0.0485 O   0  0  0  0  0  0  0  0  0  0  0  0
   21.8344   71.4808   -1.5030 O   0  0  0  0  0  0  0  0  0  0  0  0
   20.9287   72.5681   -3.4041 O   0  0  0  0  0  0  0  0  0  0  0  0
   24.9453   73.1638   -4.1544 O   0  0  0  0  0  0  0  0  0  0  0  0
   23.3159   75.3758   -3.3175 O   0  0  0  0  0  0  0  0  0  0  0  0
   24.0440   70.6561   -3.0237 O   0  0  0  0  0  0  0  0  0  0  0  0
   23.7781   73.0291   -3.3390 C   0  0  1  0  0  0  0  0  0  0  0  0
   22.7851   74.1223   -3.7387 C   0  0  1  0  0  0  0  0  0  0  0  0
   23.1716   71.6447   -3.5604 C   0  0  2  0  0  0  0  0  0  0  0  0
   21.4104   73.8824   -3.1001 C   0  0  1  0  0  0  0  0  0  0  0  0
   21.7842   71.5280   -2.9266 C   0  0  1  0  0  0  0  0  0  0  0  0
   25.3355   74.0406   -4.0182 H   0  0  0  0  0  0  0  0  0  0  0  0
   24.1841   75.5148   -3.7274 H   0  0  0  0  0  0  0  0  0  0  0  0
   24.9187   70.7403   -3.4331 H   0  0  0  0  0  0  0  0  0  0  0  0
   20.7956   75.3805   -4.8569 O   0  0  0  0  0  0  0  0  0  0  0  0
   20.3630   74.8702   -3.6092 C   0  0  0  0  0  0  0  0  0  0  0  0
   20.1385   76.0105   -5.1932 H   0  0  0  0  0  0  0  0  0  0  0  0
 25 28  1  0
 25 24  1  0
 25 26  1  1
 25 27  2  0
  1  4  1  0
  1 24  1  0
  1  2  1  1
  1  3  2  0
  6 11  1  0
  6 12  1  0
 29 36  1  0
 29 37  1  0
  9  7  1  6
  7 13  1  0
 10  8  1  6
  8 14  1  0
 37 28  1  1
  4  5  1  0
 33 30  1  6
 30 38  1  0
 34 31  1  1
 31 39  1  0
 35 32  1  1
 32 40  1  0
 41 42  1  0
 41 43  1  0
 15 19  2  0
 16 22  2  0
 12 17  1  1
 17 19  1  0
 17 20  1  0
 18 19  1  0
 18 22  1  0
 18 23  1  0
  9 10  1  0
  9 11  1  0
 10 12  1  0
 11  5  1  1
 33 34  1  0
 33 35  1  0
 34 36  1  0
 35 37  1  0
 36 42  1  6
 20 21  2  0
 21 22  1  0
M  CHG  2   2  -1  26  -1
M  END
>  <COMPND>  (149) 
    8629 

>  <AUTHOR>  (149) 
    GENERATED BY OPEN BABEL 3.1.1

>  <MASTER>  (149) 
        0    0    0    0    0    0    0    0   58    0   58    0

>  <minimizedAffinity>  (149) 
-7.07183

>  <CNNscore>  (149) 
0.4831706583

>  <CNNaffinity>  (149) 
4.1571350098

>  <CNN_VS>  (149) 
2.0086057186

>  <CNNaffinity_variance>  (149) 
0.8021024466

$$$$
150
     RDKit          3D

 43 45  0  0  0  0  0  0  0  0999 V2000
   17.8621   70.1552   -2.2593 P   0  0  2  0  0  0  0  0  0  0  0  0
   17.6667   68.5648   -2.0358 O   0  0  0  0  0  0  0  0  0  0  0  0
   16.7892   71.0159   -1.6598 O   0  0  0  0  0  0  0  0  0  0  0  0
   18.0682   70.3004   -3.8575 O   0  0  0  0  0  0  0  0  0  0  0  0
   17.3136   71.2794   -4.5503 C   0  0  0  0  0  0  0  0  0  0  0  0
   15.4180   70.7026   -5.9096 O   0  0  0  0  0  0  0  0  0  0  0  0
   17.3195   70.6940   -8.2281 O   0  0  0  0  0  0  0  0  0  0  0  0
   16.0812   73.1102   -8.4839 O   0  0  0  0  0  0  0  0  0  0  0  0
   17.2993   71.5419   -7.0810 C   0  0  1  0  0  0  0  0  0  0  0  0
   16.1728   72.5482   -7.1906 C   0  0  2  0  0  0  0  0  0  0  0  0
   16.8622   70.7041   -5.8858 C   0  0  1  0  0  0  0  0  0  0  0  0
   14.9610   71.7047   -6.8325 C   0  0  2  0  0  0  0  0  0  0  0  0
   17.5961   71.2068   -9.0042 H   0  0  0  0  0  0  0  0  0  0  0  0
   16.8752   73.6372   -8.6645 H   0  0  0  0  0  0  0  0  0  0  0  0
   13.0056   73.1822   -8.2367 O   0  0  0  0  0  0  0  0  0  0  0  0
   11.0273   74.6240   -4.3317 O   0  0  0  0  0  0  0  0  0  0  0  0
   13.9228   72.4751   -6.2079 N   0  0  0  0  0  0  0  0  0  0  0  0
   12.0221   73.8987   -6.2912 N   0  0  0  0  0  0  0  0  0  0  0  0
   12.9913   73.1814   -7.0040 C   0  0  0  0  0  0  0  0  0  0  0  0
   13.8355   72.5244   -4.8209 C   0  0  0  0  0  0  0  0  0  0  0  0
   12.9060   73.2142   -4.1564 C   0  0  0  0  0  0  0  0  0  0  0  0
   11.8947   73.9798   -4.9135 C   0  0  0  0  0  0  0  0  0  0  0  0
   11.3627   74.3989   -6.8249 H   0  0  0  0  0  0  0  0  0  0  0  0
   19.3453   70.4247   -1.6758 O   0  0  0  0  0  0  0  0  0  0  0  0
   20.2078   71.7866   -1.5566 P   0  0  2  0  0  0  0  0  0  0  0  0
   19.5012   72.5670   -0.3282 O   0  0  0  0  0  0  0  0  0  0  0  0
   20.2869   72.5783   -2.8297 O   0  0  0  0  0  0  0  0  0  0  0  0
   21.6366   71.3153   -0.9722 O   0  0  0  0  0  0  0  0  0  0  0  0
   22.7330   72.9221    0.3817 O   0  0  0  0  0  0  0  0  0  0  0  0
   25.8881   70.3368   -0.2601 O   0  0  0  0  0  0  0  0  0  0  0  0
   24.6396   70.4361    2.3243 O   0  0  0  0  0  0  0  0  0  0  0  0
   24.0159   70.8888   -2.3978 O   0  0  0  0  0  0  0  0  0  0  0  0
   24.5197   70.6957   -0.0504 C   0  0  1  0  0  0  0  0  0  0  0  0
   24.4112   71.4024    1.3023 C   0  0  1  0  0  0  0  0  0  0  0  0
   24.0680   71.6215   -1.1783 C   0  0  2  0  0  0  0  0  0  0  0  0
   23.0319   72.0514    1.4792 C   0  0  1  0  0  0  0  0  0  0  0  0
   22.7066   72.2523   -0.8803 C   0  0  1  0  0  0  0  0  0  0  0  0
   26.1811   69.7486    0.4524 H   0  0  0  0  0  0  0  0  0  0  0  0
   25.5136   70.0335    2.2008 H   0  0  0  0  0  0  0  0  0  0  0  0
   24.8836   70.4947   -2.5754 H   0  0  0  0  0  0  0  0  0  0  0  0
   22.6050   72.0473    3.8300 O   0  0  0  0  0  0  0  0  0  0  0  0
   22.9550   72.8938    2.7506 C   0  0  0  0  0  0  0  0  0  0  0  0
   22.5526   72.5698    4.6461 H   0  0  0  0  0  0  0  0  0  0  0  0
 25 28  1  0
 25 24  1  0
 25 26  1  1
 25 27  2  0
  1  4  1  0
  1 24  1  0
  1  2  1  6
  1  3  2  0
  6 11  1  0
  6 12  1  0
 29 36  1  0
 29 37  1  0
  9  7  1  6
  7 13  1  0
 10  8  1  6
  8 14  1  0
 37 28  1  1
  4  5  1  0
 33 30  1  6
 30 38  1  0
 34 31  1  1
 31 39  1  0
 35 32  1  6
 32 40  1  0
 41 42  1  0
 41 43  1  0
 15 19  2  0
 16 22  2  0
 12 17  1  1
 17 19  1  0
 17 20  1  0
 18 19  1  0
 18 22  1  0
 18 23  1  0
  9 10  1  0
  9 11  1  0
 10 12  1  0
 11  5  1  1
 33 34  1  0
 33 35  1  0
 34 36  1  0
 35 37  1  0
 36 42  1  1
 20 21  2  0
 21 22  1  0
M  CHG  2   2  -1  26  -1
M  END
>  <COMPND>  (150) 
    8629 

>  <AUTHOR>  (150) 
    GENERATED BY OPEN BABEL 3.1.1

>  <MASTER>  (150) 
        0    0    0    0    0    0    0    0   58    0   58    0

>  <minimizedAffinity>  (150) 
-6.92379

>  <CNNscore>  (150) 
0.4636498690

>  <CNNaffinity>  (150) 
4.0328302383

>  <CNN_VS>  (150) 
1.8698211908

>  <CNNaffinity_variance>  (150) 
0.0848605782

$$$$
151
     RDKit          3D

 43 45  0  0  0  0  0  0  0  0999 V2000
   22.6303   72.2482   -3.9911 P   0  0  2  0  0  0  0  0  0  0  0  0
   22.1979   70.7028   -3.7860 O   0  0  0  0  0  0  0  0  0  0  0  0
   23.9047   72.4535   -4.7560 O   0  0  0  0  0  0  0  0  0  0  0  0
   22.6029   72.8612   -2.4940 O   0  0  0  0  0  0  0  0  0  0  0  0
   22.6862   71.9689   -1.3964 C   0  0  0  0  0  0  0  0  0  0  0  0
   23.7353   73.1733    0.3988 O   0  0  0  0  0  0  0  0  0  0  0  0
   25.9426   71.1522    0.2153 O   0  0  0  0  0  0  0  0  0  0  0  0
   24.5113   70.2757    2.3646 O   0  0  0  0  0  0  0  0  0  0  0  0
   24.5386   70.9736    0.0358 C   0  0  1  0  0  0  0  0  0  0  0  0
   23.8282   71.0147    1.3727 C   0  0  2  0  0  0  0  0  0  0  0  0
   23.9917   72.2175   -0.6534 C   0  0  1  0  0  0  0  0  0  0  0  0
   23.8002   72.5045    1.6689 C   0  0  2  0  0  0  0  0  0  0  0  0
   26.3144   70.3700    0.6535 H   0  0  0  0  0  0  0  0  0  0  0  0
   24.5016   69.3344    2.1309 H   0  0  0  0  0  0  0  0  0  0  0  0
   23.6782   72.3396    4.4860 O   0  0  0  0  0  0  0  0  0  0  0  0
   19.3768   73.9919    4.5793 O   0  0  0  0  0  0  0  0  0  0  0  0
   22.6609   72.8853    2.4552 N   0  0  0  0  0  0  0  0  0  0  0  0
   21.5366   73.1626    4.5302 N   0  0  0  0  0  0  0  0  0  0  0  0
   22.7017   72.7624    3.8636 C   0  0  0  0  0  0  0  0  0  0  0  0
   21.5194   73.3746    1.8295 C   0  0  0  0  0  0  0  0  0  0  0  0
   20.4161   73.7507    2.4794 C   0  0  0  0  0  0  0  0  0  0  0  0
   20.3765   73.6540    3.9529 C   0  0  0  0  0  0  0  0  0  0  0  0
   21.5419   73.0855    5.5119 H   0  0  0  0  0  0  0  0  0  0  0  0
   21.3213   72.9040   -4.6763 O   0  0  0  0  0  0  0  0  0  0  0  0
   19.7657   72.8737   -4.2378 P   0  0  2  0  0  0  0  0  0  0  0  0
   19.3361   74.4327   -4.2864 O   0  0  0  0  0  0  0  0  0  0  0  0
   19.5110   72.2020   -2.9195 O   0  0  0  0  0  0  0  0  0  0  0  0
   19.0014   72.2010   -5.4900 O   0  0  0  0  0  0  0  0  0  0  0  0
   18.3112   69.9630   -5.1268 O   0  0  0  0  0  0  0  0  0  0  0  0
   17.7991   70.1554   -9.2197 O   0  0  0  0  0  0  0  0  0  0  0  0
   15.4971   70.1208   -7.5028 O   0  0  0  0  0  0  0  0  0  0  0  0
   20.0615   71.4723   -7.9841 O   0  0  0  0  0  0  0  0  0  0  0  0
   17.7967   70.6592   -7.8812 C   0  0  1  0  0  0  0  0  0  0  0  0
   16.8169   69.8228   -7.0558 C   0  0  1  0  0  0  0  0  0  0  0  0
   19.2082   70.5562   -7.3065 C   0  0  2  0  0  0  0  0  0  0  0  0
   16.9549   70.1261   -5.5578 C   0  0  1  0  0  0  0  0  0  0  0  0
   19.2265   70.8285   -5.8013 C   0  0  1  0  0  0  0  0  0  0  0  0
   16.9058   70.2185   -9.5906 H   0  0  0  0  0  0  0  0  0  0  0  0
   15.4235   69.9254   -8.4502 H   0  0  0  0  0  0  0  0  0  0  0  0
   20.0414   71.2894   -8.9359 H   0  0  0  0  0  0  0  0  0  0  0  0
   16.0693   67.9193   -5.3236 O   0  0  0  0  0  0  0  0  0  0  0  0
   16.1002   69.1919   -4.7040 C   0  0  0  0  0  0  0  0  0  0  0  0
   15.5291   67.3142   -4.7910 H   0  0  0  0  0  0  0  0  0  0  0  0
 25 28  1  0
 25 24  1  0
 25 26  1  1
 25 27  2  0
  1  4  1  0
  1 24  1  0
  1  2  1  1
  1  3  2  0
  6 11  1  0
  6 12  1  0
 29 36  1  0
 29 37  1  0
  9  7  1  1
  7 13  1  0
 10  8  1  1
  8 14  1  0
 37 28  1  6
  4  5  1  0
 33 30  1  6
 30 38  1  0
 34 31  1  6
 31 39  1  0
 35 32  1  6
 32 40  1  0
 41 42  1  0
 41 43  1  0
 15 19  2  0
 16 22  2  0
 12 17  1  1
 17 19  1  0
 17 20  1  0
 18 19  1  0
 18 22  1  0
 18 23  1  0
  9 10  1  0
  9 11  1  0
 10 12  1  0
 11  5  1  1
 33 34  1  0
 33 35  1  0
 34 36  1  0
 35 37  1  0
 36 42  1  1
 20 21  2  0
 21 22  1  0
M  CHG  2   2  -1  26  -1
M  END
>  <COMPND>  (151) 
    8629 

>  <AUTHOR>  (151) 
    GENERATED BY OPEN BABEL 3.1.1

>  <MASTER>  (151) 
        0    0    0    0    0    0    0    0   58    0   58    0

>  <minimizedAffinity>  (151) 
-7.24142

>  <CNNscore>  (151) 
0.4613651633

>  <CNNaffinity>  (151) 
4.2736902237

>  <CNN_VS>  (151) 
1.9717317820

>  <CNNaffinity_variance>  (151) 
0.0151072685

$$$$
152
     RDKit          3D

 43 45  0  0  0  0  0  0  0  0999 V2000
   23.1623   73.2307   -4.7053 P   0  0  2  0  0  0  0  0  0  0  0  0
   23.1797   74.8476   -4.6529 O   0  0  0  0  0  0  0  0  0  0  0  0
   23.8457   72.6279   -5.8973 O   0  0  0  0  0  0  0  0  0  0  0  0
   21.5992   72.8531   -4.5260 O   0  0  0  0  0  0  0  0  0  0  0  0
   20.8318   72.5819   -5.6859 C   0  0  0  0  0  0  0  0  0  0  0  0
   19.7371   70.5222   -5.1086 O   0  0  0  0  0  0  0  0  0  0  0  0
   20.9790   69.3844   -7.5894 O   0  0  0  0  0  0  0  0  0  0  0  0
   18.4198   69.8901   -8.3840 O   0  0  0  0  0  0  0  0  0  0  0  0
   20.4700   70.6965   -7.3555 C   0  0  1  0  0  0  0  0  0  0  0  0
   18.9557   70.6781   -7.3406 C   0  0  2  0  0  0  0  0  0  0  0  0
   20.7976   71.0774   -5.9171 C   0  0  1  0  0  0  0  0  0  0  0  0
   18.6610   70.1052   -5.9647 C   0  0  2  0  0  0  0  0  0  0  0  0
   20.7820   69.1193   -8.5020 H   0  0  0  0  0  0  0  0  0  0  0  0
   18.6338   70.2960   -9.2385 H   0  0  0  0  0  0  0  0  0  0  0  0
   16.7618   68.4894   -4.6381 O   0  0  0  0  0  0  0  0  0  0  0  0
   13.9401   72.0649   -3.9345 O   0  0  0  0  0  0  0  0  0  0  0  0
   17.4215   70.5878   -5.4244 N   0  0  0  0  0  0  0  0  0  0  0  0
   15.3585   70.2711   -4.2887 N   0  0  0  0  0  0  0  0  0  0  0  0
   16.5371   69.6934   -4.7777 C   0  0  0  0  0  0  0  0  0  0  0  0
   17.0936   71.9345   -5.5382 C   0  0  0  0  0  0  0  0  0  0  0  0
   15.9651   72.4694   -5.0675 C   0  0  0  0  0  0  0  0  0  0  0  0
   14.9869   71.6032   -4.3782 C   0  0  0  0  0  0  0  0  0  0  0  0
   14.7270   69.6670   -3.8347 H   0  0  0  0  0  0  0  0  0  0  0  0
   23.8025   72.8140   -3.2807 O   0  0  0  0  0  0  0  0  0  0  0  0
   23.8483   71.3924   -2.5126 P   0  0  2  0  0  0  0  0  0  0  0  0
   25.3630   70.8830   -2.7649 O   0  0  0  0  0  0  0  0  0  0  0  0
   22.7881   70.4230   -2.9487 O   0  0  0  0  0  0  0  0  0  0  0  0
   23.8022   71.7735   -0.9449 O   0  0  0  0  0  0  0  0  0  0  0  0
   24.9290   70.8599    0.9292 O   0  0  0  0  0  0  0  0  0  0  0  0
   21.2425   71.5601    2.6527 O   0  0  0  0  0  0  0  0  0  0  0  0
   23.4730   73.2305    3.3477 O   0  0  0  0  0  0  0  0  0  0  0  0
   21.4032   70.6056   -0.0754 O   0  0  0  0  0  0  0  0  0  0  0  0
   22.3430   71.8233    1.7780 C   0  0  1  0  0  0  0  0  0  0  0  0
   23.6002   72.0058    2.6306 C   0  0  1  0  0  0  0  0  0  0  0  0
   22.5104   70.6467    0.8184 C   0  0  2  0  0  0  0  0  0  0  0  0
   24.8629   72.0259    1.7586 C   0  0  1  0  0  0  0  0  0  0  0  0
   23.8210   70.7387    0.0350 C   0  0  1  0  0  0  0  0  0  0  0  0
   21.1306   72.3037    3.2644 H   0  0  0  0  0  0  0  0  0  0  0  0
   22.6716   73.2050    3.8940 H   0  0  0  0  0  0  0  0  0  0  0  0
   20.5796   70.5471    0.4327 H   0  0  0  0  0  0  0  0  0  0  0  0
   26.3559   73.3730    3.0489 O   0  0  0  0  0  0  0  0  0  0  0  0
   26.1379   72.0486    2.5987 C   0  0  0  0  0  0  0  0  0  0  0  0
   27.1640   73.4026    3.5853 H   0  0  0  0  0  0  0  0  0  0  0  0
 25 28  1  0
 25 24  1  0
 25 26  1  1
 25 27  2  0
  1  4  1  0
  1 24  1  0
  1  2  1  6
  1  3  2  0
  6 11  1  0
  6 12  1  0
 29 36  1  0
 29 37  1  0
  9  7  1  1
  7 13  1  0
 10  8  1  6
  8 14  1  0
 37 28  1  6
  4  5  1  0
 33 30  1  1
 30 38  1  0
 34 31  1  6
 31 39  1  0
 35 32  1  6
 32 40  1  0
 41 42  1  0
 41 43  1  0
 15 19  2  0
 16 22  2  0
 12 17  1  1
 17 19  1  0
 17 20  1  0
 18 19  1  0
 18 22  1  0
 18 23  1  0
  9 10  1  0
  9 11  1  0
 10 12  1  0
 11  5  1  6
 33 34  1  0
 33 35  1  0
 34 36  1  0
 35 37  1  0
 36 42  1  1
 20 21  2  0
 21 22  1  0
M  CHG  2   2  -1  26  -1
M  END
>  <COMPND>  (152) 
    8629 

>  <AUTHOR>  (152) 
    GENERATED BY OPEN BABEL 3.1.1

>  <MASTER>  (152) 
        0    0    0    0    0    0    0    0   58    0   58    0

>  <minimizedAffinity>  (152) 
-7.86614

>  <CNNscore>  (152) 
0.4522895813

>  <CNNaffinity>  (152) 
4.3712139130

>  <CNN_VS>  (152) 
1.9770544767

>  <CNNaffinity_variance>  (152) 
0.0792261213

$$$$
153
     RDKit          3D

 43 45  0  0  0  0  0  0  0  0999 V2000
   24.0915   71.8395   -2.0593 P   0  0  2  0  0  0  0  0  0  0  0  0
   24.6284   72.9636   -1.0271 O   0  0  0  0  0  0  0  0  0  0  0  0
   25.1405   70.8972   -2.5721 O   0  0  0  0  0  0  0  0  0  0  0  0
   23.3016   72.6917   -3.1853 O   0  0  0  0  0  0  0  0  0  0  0  0
   22.0054   72.2671   -3.5690 C   0  0  0  0  0  0  0  0  0  0  0  0
   21.0927   70.6977   -5.1431 O   0  0  0  0  0  0  0  0  0  0  0  0
   22.2201   72.4722   -7.2812 O   0  0  0  0  0  0  0  0  0  0  0  0
   19.5819   73.1622   -7.2660 O   0  0  0  0  0  0  0  0  0  0  0  0
   21.6453   72.8269   -6.0246 C   0  0  1  0  0  0  0  0  0  0  0  0
   20.1406   72.6607   -6.0689 C   0  0  2  0  0  0  0  0  0  0  0  0
   22.0523   71.7687   -5.0069 C   0  0  1  0  0  0  0  0  0  0  0  0
   19.9859   71.1551   -5.9374 C   0  0  2  0  0  0  0  0  0  0  0  0
   21.9742   73.1338   -7.9473 H   0  0  0  0  0  0  0  0  0  0  0  0
   19.7055   74.1235   -7.3029 H   0  0  0  0  0  0  0  0  0  0  0  0
   17.5085   70.8447   -7.2580 O   0  0  0  0  0  0  0  0  0  0  0  0
   15.3510   69.7345   -3.3396 O   0  0  0  0  0  0  0  0  0  0  0  0
   18.7607   70.7851   -5.2868 N   0  0  0  0  0  0  0  0  0  0  0  0
   16.4363   70.2920   -5.3059 N   0  0  0  0  0  0  0  0  0  0  0  0
   17.5712   70.6571   -6.0412 C   0  0  0  0  0  0  0  0  0  0  0  0
   18.7468   70.5531   -3.9157 C   0  0  0  0  0  0  0  0  0  0  0  0
   17.6559   70.2069   -3.2292 C   0  0  0  0  0  0  0  0  0  0  0  0
   16.3716   70.0518   -3.9425 C   0  0  0  0  0  0  0  0  0  0  0  0
   15.5959   70.1972   -5.8104 H   0  0  0  0  0  0  0  0  0  0  0  0
   22.8954   71.1306   -1.2348 O   0  0  0  0  0  0  0  0  0  0  0  0
   22.8322   70.5849    0.2855 P   0  0  2  0  0  0  0  0  0  0  0  0
   24.3437   70.0778    0.5608 O   0  0  0  0  0  0  0  0  0  0  0  0
   21.7769   69.5436    0.5221 O   0  0  0  0  0  0  0  0  0  0  0  0
   22.6766   71.9126    1.1899 O   0  0  0  0  0  0  0  0  0  0  0  0
   22.7514   71.9202    3.5586 O   0  0  0  0  0  0  0  0  0  0  0  0
   20.3869   75.2525    2.9625 O   0  0  0  0  0  0  0  0  0  0  0  0
   23.1011   75.5789    3.8424 O   0  0  0  0  0  0  0  0  0  0  0  0
   20.0621   72.9294    1.2663 O   0  0  0  0  0  0  0  0  0  0  0  0
   21.4374   74.3298    2.6623 C   0  0  1  0  0  0  0  0  0  0  0  0
   22.4219   74.3263    3.8334 C   0  0  1  0  0  0  0  0  0  0  0  0
   20.8379   72.9395    2.4598 C   0  0  2  0  0  0  0  0  0  0  0  0
   23.4277   73.1740    3.7083 C   0  0  1  0  0  0  0  0  0  0  0  0
   21.9210   71.8610    2.3972 C   0  0  1  0  0  0  0  0  0  0  0  0
   20.7607   76.1374    3.0917 H   0  0  0  0  0  0  0  0  0  0  0  0
   22.4547   76.2980    3.9213 H   0  0  0  0  0  0  0  0  0  0  0  0
   19.3799   73.6163    1.3184 H   0  0  0  0  0  0  0  0  0  0  0  0
   23.5963   73.5286    6.0651 O   0  0  0  0  0  0  0  0  0  0  0  0
   24.3185   73.0557    4.9430 C   0  0  0  0  0  0  0  0  0  0  0  0
   24.1508   73.4591    6.8585 H   0  0  0  0  0  0  0  0  0  0  0  0
 25 28  1  0
 25 24  1  0
 25 26  1  1
 25 27  2  0
  1  4  1  0
  1 24  1  0
  1  2  1  1
  1  3  2  0
  6 11  1  0
  6 12  1  0
 29 36  1  0
 29 37  1  0
  9  7  1  6
  7 13  1  0
 10  8  1  6
  8 14  1  0
 37 28  1  6
  4  5  1  0
 33 30  1  1
 30 38  1  0
 34 31  1  6
 31 39  1  0
 35 32  1  6
 32 40  1  0
 41 42  1  0
 41 43  1  0
 15 19  2  0
 16 22  2  0
 12 17  1  1
 17 19  1  0
 17 20  1  0
 18 19  1  0
 18 22  1  0
 18 23  1  0
  9 10  1  0
  9 11  1  0
 10 12  1  0
 11  5  1  1
 33 34  1  0
 33 35  1  0
 34 36  1  0
 35 37  1  0
 36 42  1  1
 20 21  2  0
 21 22  1  0
M  CHG  2   2  -1  26  -1
M  END
>  <COMPND>  (153) 
    8629 

>  <AUTHOR>  (153) 
    GENERATED BY OPEN BABEL 3.1.1

>  <MASTER>  (153) 
        0    0    0    0    0    0    0    0   58    0   58    0

>  <minimizedAffinity>  (153) 
-6.87425

>  <CNNscore>  (153) 
0.4429679215

>  <CNNaffinity>  (153) 
4.1498384476

>  <CNN_VS>  (153) 
1.8382452726

>  <CNNaffinity_variance>  (153) 
0.1346225739

$$$$
154
     RDKit          3D

 43 45  0  0  0  0  0  0  0  0999 V2000
   19.7159   70.4659   -2.1113 P   0  0  2  0  0  0  0  0  0  0  0  0
   18.6906   69.2249   -1.9500 O   0  0  0  0  0  0  0  0  0  0  0  0
   20.7190   70.3197   -3.2176 O   0  0  0  0  0  0  0  0  0  0  0  0
   20.3301   70.6578   -0.6268 O   0  0  0  0  0  0  0  0  0  0  0  0
   20.7952   71.9416   -0.2482 C   0  0  0  0  0  0  0  0  0  0  0  0
   22.8956   73.0126    0.2155 O   0  0  0  0  0  0  0  0  0  0  0  0
   24.1409   70.8981   -1.5075 O   0  0  0  0  0  0  0  0  0  0  0  0
   24.6642   69.9960    1.0122 O   0  0  0  0  0  0  0  0  0  0  0  0
   23.0378   70.7954   -0.6087 C   0  0  1  0  0  0  0  0  0  0  0  0
   23.5248   70.8106    0.8253 C   0  0  2  0  0  0  0  0  0  0  0  0
   22.2446   72.0937   -0.6890 C   0  0  1  0  0  0  0  0  0  0  0  0
   23.8184   72.2853    1.0427 C   0  0  2  0  0  0  0  0  0  0  0  0
   24.6624   70.0802   -1.4740 H   0  0  0  0  0  0  0  0  0  0  0  0
   24.4262   69.0677    0.8628 H   0  0  0  0  0  0  0  0  0  0  0  0
   25.8319   72.1814    3.0207 O   0  0  0  0  0  0  0  0  0  0  0  0
   22.9976   73.8419    6.2535 O   0  0  0  0  0  0  0  0  0  0  0  0
   23.6342   72.6847    2.4094 N   0  0  0  0  0  0  0  0  0  0  0  0
   24.4191   73.0085    4.6287 N   0  0  0  0  0  0  0  0  0  0  0  0
   24.7097   72.5922    3.3233 C   0  0  0  0  0  0  0  0  0  0  0  0
   22.3981   73.1621    2.8313 C   0  0  0  0  0  0  0  0  0  0  0  0
   22.1368   73.5538    4.0801 C   0  0  0  0  0  0  0  0  0  0  0  0
   23.2064   73.4891    5.0969 C   0  0  0  0  0  0  0  0  0  0  0  0
   25.1531   72.9526    5.2829 H   0  0  0  0  0  0  0  0  0  0  0  0
   18.7279   71.7363   -2.2627 O   0  0  0  0  0  0  0  0  0  0  0  0
   17.3381   71.9100   -3.0697 P   0  0  2  0  0  0  0  0  0  0  0  0
   17.3154   73.4861   -3.4346 O   0  0  0  0  0  0  0  0  0  0  0  0
   16.1281   71.4301   -2.3218 O   0  0  0  0  0  0  0  0  0  0  0  0
   17.5898   71.1685   -4.4810 O   0  0  0  0  0  0  0  0  0  0  0  0
   19.0385   72.2838   -5.9890 O   0  0  0  0  0  0  0  0  0  0  0  0
   17.2989   69.6041   -8.6051 O   0  0  0  0  0  0  0  0  0  0  0  0
   20.0252   69.2211   -7.7877 O   0  0  0  0  0  0  0  0  0  0  0  0
   15.7022   70.8414   -6.5316 O   0  0  0  0  0  0  0  0  0  0  0  0
   17.8233   70.0463   -7.3502 C   0  0  1  0  0  0  0  0  0  0  0  0
   19.2933   70.4203   -7.5497 C   0  0  1  0  0  0  0  0  0  0  0  0
   17.0211   71.2551   -6.8720 C   0  0  2  0  0  0  0  0  0  0  0  0
   19.8506   71.1516   -6.3210 C   0  0  1  0  0  0  0  0  0  0  0  0
   17.6876   71.9382   -5.6765 C   0  0  1  0  0  0  0  0  0  0  0  0
   17.8035   68.8364   -8.9141 H   0  0  0  0  0  0  0  0  0  0  0  0
   19.6630   68.7688   -8.5657 H   0  0  0  0  0  0  0  0  0  0  0  0
   15.2910   70.4108   -7.2967 H   0  0  0  0  0  0  0  0  0  0  0  0
   21.8386   72.0059   -5.3077 O   0  0  0  0  0  0  0  0  0  0  0  0
   21.2663   71.6726   -6.5589 C   0  0  0  0  0  0  0  0  0  0  0  0
   22.7400   72.3387   -5.4435 H   0  0  0  0  0  0  0  0  0  0  0  0
 25 28  1  0
 25 24  1  0
 25 26  1  6
 25 27  2  0
  1  4  1  0
  1 24  1  0
  1  2  1  1
  1  3  2  0
  6 11  1  0
  6 12  1  0
 29 36  1  0
 29 37  1  0
  9  7  1  6
  7 13  1  0
 10  8  1  6
  8 14  1  0
 37 28  1  1
  4  5  1  0
 33 30  1  6
 30 38  1  0
 34 31  1  1
 31 39  1  0
 35 32  1  1
 32 40  1  0
 41 42  1  0
 41 43  1  0
 15 19  2  0
 16 22  2  0
 12 17  1  1
 17 19  1  0
 17 20  1  0
 18 19  1  0
 18 22  1  0
 18 23  1  0
  9 10  1  0
  9 11  1  0
 10 12  1  0
 11  5  1  1
 33 34  1  0
 33 35  1  0
 34 36  1  0
 35 37  1  0
 36 42  1  6
 20 21  2  0
 21 22  1  0
M  CHG  2   2  -1  26  -1
M  END
>  <COMPND>  (154) 
    8629 

>  <AUTHOR>  (154) 
    GENERATED BY OPEN BABEL 3.1.1

>  <MASTER>  (154) 
        0    0    0    0    0    0    0    0   58    0   58    0

>  <minimizedAffinity>  (154) 
-6.48375

>  <CNNscore>  (154) 
0.4367372096

>  <CNNaffinity>  (154) 
4.2284555435

>  <CNN_VS>  (154) 
1.8467239141

>  <CNNaffinity_variance>  (154) 
0.2052114308

$$$$
155
     RDKit          3D

 43 45  0  0  0  0  0  0  0  0999 V2000
   20.8065   70.9249   -2.8097 P   0  0  2  0  0  0  0  0  0  0  0  0
   21.3045   70.5013   -4.2895 O   0  0  0  0  0  0  0  0  0  0  0  0
   20.2641   72.3195   -2.6985 O   0  0  0  0  0  0  0  0  0  0  0  0
   22.0732   70.5860   -1.8618 O   0  0  0  0  0  0  0  0  0  0  0  0
   23.1891   71.4589   -1.8868 C   0  0  0  0  0  0  0  0  0  0  0  0
   24.0469   72.7176   -0.0284 O   0  0  0  0  0  0  0  0  0  0  0  0
   24.0770   70.1228    1.4740 O   0  0  0  0  0  0  0  0  0  0  0  0
   21.8129   71.3232    2.4063 O   0  0  0  0  0  0  0  0  0  0  0  0
   23.1415   70.5936    0.5053 C   0  0  1  0  0  0  0  0  0  0  0  0
   22.2541   71.6629    1.1076 C   0  0  2  0  0  0  0  0  0  0  0  0
   23.9126   71.3772   -0.5496 C   0  0  1  0  0  0  0  0  0  0  0  0
   23.1710   72.8743    1.0999 C   0  0  2  0  0  0  0  0  0  0  0  0
   23.6079   69.6189    2.1581 H   0  0  0  0  0  0  0  0  0  0  0  0
   21.2330   70.5471    2.3582 H   0  0  0  0  0  0  0  0  0  0  0  0
   23.8066   75.2593    2.4732 O   0  0  0  0  0  0  0  0  0  0  0  0
   20.3281   77.5431    0.4918 O   0  0  0  0  0  0  0  0  0  0  0  0
   22.4484   74.1072    0.9615 N   0  0  0  0  0  0  0  0  0  0  0  0
   22.0741   76.3946    1.4853 N   0  0  0  0  0  0  0  0  0  0  0  0
   22.8488   75.2469    1.6971 C   0  0  0  0  0  0  0  0  0  0  0  0
   21.3561   74.1777    0.1037 C   0  0  0  0  0  0  0  0  0  0  0  0
   20.6270   75.2794   -0.0861 C   0  0  0  0  0  0  0  0  0  0  0  0
   20.9789   76.5141    0.6446 C   0  0  0  0  0  0  0  0  0  0  0  0
   22.3343   77.2008    1.9875 H   0  0  0  0  0  0  0  0  0  0  0  0
   19.7501   69.7603   -2.4345 O   0  0  0  0  0  0  0  0  0  0  0  0
   18.1479   69.6767   -2.6317 P   0  0  2  0  0  0  0  0  0  0  0  0
   17.6352   71.1236   -2.1206 O   0  0  0  0  0  0  0  0  0  0  0  0
   17.5027   68.5112   -1.9395 O   0  0  0  0  0  0  0  0  0  0  0  0
   17.9308   69.7088   -4.2307 O   0  0  0  0  0  0  0  0  0  0  0  0
   18.6408   71.3210   -5.8160 O   0  0  0  0  0  0  0  0  0  0  0  0
   15.0243   70.2755   -7.5126 O   0  0  0  0  0  0  0  0  0  0  0  0
   17.4707   69.4091   -8.7425 O   0  0  0  0  0  0  0  0  0  0  0  0
   15.2635   70.4815   -4.6351 O   0  0  0  0  0  0  0  0  0  0  0  0
   16.2401   70.0499   -6.7941 C   0  0  1  0  0  0  0  0  0  0  0  0
   17.4123   70.3945   -7.7150 C   0  0  1  0  0  0  0  0  0  0  0  0
   16.2560   70.9351   -5.5493 C   0  0  2  0  0  0  0  0  0  0  0  0
   18.7347   70.4345   -6.9371 C   0  0  1  0  0  0  0  0  0  0  0  0
   17.6309   70.9422   -4.8788 C   0  0  1  0  0  0  0  0  0  0  0  0
   15.0077   69.7160   -8.3040 H   0  0  0  0  0  0  0  0  0  0  0  0
   16.6295   69.3938   -9.2256 H   0  0  0  0  0  0  0  0  0  0  0  0
   14.3978   70.4818   -5.0714 H   0  0  0  0  0  0  0  0  0  0  0  0
   21.0945   70.3703   -7.3061 O   0  0  0  0  0  0  0  0  0  0  0  0
   19.8920   70.9296   -7.8017 C   0  0  0  0  0  0  0  0  0  0  0  0
   21.8398   70.6765   -7.8469 H   0  0  0  0  0  0  0  0  0  0  0  0
 25 28  1  0
 25 24  1  0
 25 26  1  1
 25 27  2  0
  1  4  1  0
  1 24  1  0
  1  2  1  6
  1  3  2  0
  6 11  1  0
  6 12  1  0
 29 36  1  0
 29 37  1  0
  9  7  1  1
  7 13  1  0
 10  8  1  1
  8 14  1  0
 37 28  1  6
  4  5  1  0
 33 30  1  6
 30 38  1  0
 34 31  1  6
 31 39  1  0
 35 32  1  1
 32 40  1  0
 41 42  1  0
 41 43  1  0
 15 19  2  0
 16 22  2  0
 12 17  1  6
 17 19  1  0
 17 20  1  0
 18 19  1  0
 18 22  1  0
 18 23  1  0
  9 10  1  0
  9 11  1  0
 10 12  1  0
 11  5  1  6
 33 34  1  0
 33 35  1  0
 34 36  1  0
 35 37  1  0
 36 42  1  6
 20 21  2  0
 21 22  1  0
M  CHG  2   2  -1  26  -1
M  END
>  <COMPND>  (155) 
    8629 

>  <AUTHOR>  (155) 
    GENERATED BY OPEN BABEL 3.1.1

>  <MASTER>  (155) 
        0    0    0    0    0    0    0    0   58    0   58    0

>  <minimizedAffinity>  (155) 
-6.53415

>  <CNNscore>  (155) 
0.4334972203

>  <CNNaffinity>  (155) 
4.3154745102

>  <CNN_VS>  (155) 
1.8707462549

>  <CNNaffinity_variance>  (155) 
0.0464752018

$$$$
156
     RDKit          3D

 43 45  0  0  0  0  0  0  0  0999 V2000
   17.8058   70.0691   -2.1837 P   0  0  2  0  0  0  0  0  0  0  0  0
   17.3285   68.5860   -1.7481 O   0  0  0  0  0  0  0  0  0  0  0  0
   17.0137   71.1922   -1.5816 O   0  0  0  0  0  0  0  0  0  0  0  0
   17.8261   70.0114   -3.8005 O   0  0  0  0  0  0  0  0  0  0  0  0
   16.8825   69.1848   -4.4594 C   0  0  0  0  0  0  0  0  0  0  0  0
   16.8860   71.2287   -5.7228 O   0  0  0  0  0  0  0  0  0  0  0  0
   14.9297   69.8816   -7.5529 O   0  0  0  0  0  0  0  0  0  0  0  0
   17.2753   69.6649   -8.9269 O   0  0  0  0  0  0  0  0  0  0  0  0
   16.0447   69.3260   -6.8576 C   0  0  1  0  0  0  0  0  0  0  0  0
   17.3402   69.7494   -7.5178 C   0  0  2  0  0  0  0  0  0  0  0  0
   16.1405   70.0117   -5.5004 C   0  0  1  0  0  0  0  0  0  0  0  0
   17.4932   71.1781   -7.0242 C   0  0  2  0  0  0  0  0  0  0  0  0
   14.8480   69.4589   -8.4227 H   0  0  0  0  0  0  0  0  0  0  0  0
   17.1782   68.7368   -9.1912 H   0  0  0  0  0  0  0  0  0  0  0  0
   18.3573   73.8251   -6.5502 O   0  0  0  0  0  0  0  0  0  0  0  0
   22.7951   72.5830   -6.6171 O   0  0  0  0  0  0  0  0  0  0  0  0
   18.8686   71.5747   -6.9128 N   0  0  0  0  0  0  0  0  0  0  0  0
   20.5663   73.2044   -6.5837 N   0  0  0  0  0  0  0  0  0  0  0  0
   19.1957   72.9300   -6.6749 C   0  0  0  0  0  0  0  0  0  0  0  0
   19.8762   70.6246   -7.0389 C   0  0  0  0  0  0  0  0  0  0  0  0
   21.1785   70.9028   -6.9507 C   0  0  0  0  0  0  0  0  0  0  0  0
   21.6053   72.2951   -6.7033 C   0  0  0  0  0  0  0  0  0  0  0  0
   20.8180   74.1421   -6.4187 H   0  0  0  0  0  0  0  0  0  0  0  0
   19.3762   70.0727   -1.8005 O   0  0  0  0  0  0  0  0  0  0  0  0
   20.5830   71.0369   -2.2770 P   0  0  2  0  0  0  0  0  0  0  0  0
   19.8980   72.5023   -2.3052 O   0  0  0  0  0  0  0  0  0  0  0  0
   21.2231   70.6275   -3.5719 O   0  0  0  0  0  0  0  0  0  0  0  0
   21.5912   71.0823   -1.0175 O   0  0  0  0  0  0  0  0  0  0  0  0
   22.5805   72.7944    0.2889 O   0  0  0  0  0  0  0  0  0  0  0  0
   25.8974   70.4030   -0.2858 O   0  0  0  0  0  0  0  0  0  0  0  0
   24.6449   70.4934    2.2970 O   0  0  0  0  0  0  0  0  0  0  0  0
   23.9933   70.7717   -2.4347 O   0  0  0  0  0  0  0  0  0  0  0  0
   24.5085   70.6778   -0.0838 C   0  0  1  0  0  0  0  0  0  0  0  0
   24.3541   71.4136    1.2488 C   0  0  1  0  0  0  0  0  0  0  0  0
   23.9975   71.5402   -1.2364 C   0  0  2  0  0  0  0  0  0  0  0  0
   22.9354   71.9762    1.4098 C   0  0  1  0  0  0  0  0  0  0  0  0
   22.5979   72.0892   -0.9537 C   0  0  1  0  0  0  0  0  0  0  0  0
   26.2280   69.8554    0.4425 H   0  0  0  0  0  0  0  0  0  0  0  0
   25.5432   70.1452    2.1834 H   0  0  0  0  0  0  0  0  0  0  0  0
   24.8849   70.4301   -2.6028 H   0  0  0  0  0  0  0  0  0  0  0  0
   22.5554   72.0058    3.7685 O   0  0  0  0  0  0  0  0  0  0  0  0
   22.8037   72.8471    2.6573 C   0  0  0  0  0  0  0  0  0  0  0  0
   22.4696   72.5465    4.5698 H   0  0  0  0  0  0  0  0  0  0  0  0
 25 28  1  0
 25 24  1  0
 25 26  1  6
 25 27  2  0
  1  4  1  0
  1 24  1  0
  1  2  1  1
  1  3  2  0
  6 11  1  0
  6 12  1  0
 29 36  1  0
 29 37  1  0
  9  7  1  6
  7 13  1  0
 10  8  1  6
  8 14  1  0
 37 28  1  1
  4  5  1  0
 33 30  1  6
 30 38  1  0
 34 31  1  1
 31 39  1  0
 35 32  1  6
 32 40  1  0
 41 42  1  0
 41 43  1  0
 15 19  2  0
 16 22  2  0
 12 17  1  1
 17 19  1  0
 17 20  1  0
 18 19  1  0
 18 22  1  0
 18 23  1  0
  9 10  1  0
  9 11  1  0
 10 12  1  0
 11  5  1  1
 33 34  1  0
 33 35  1  0
 34 36  1  0
 35 37  1  0
 36 42  1  1
 20 21  2  0
 21 22  1  0
M  CHG  2   2  -1  26  -1
M  END
>  <COMPND>  (156) 
    8629 

>  <AUTHOR>  (156) 
    GENERATED BY OPEN BABEL 3.1.1

>  <MASTER>  (156) 
        0    0    0    0    0    0    0    0   58    0   58    0

>  <minimizedAffinity>  (156) 
-7.95443

>  <CNNscore>  (156) 
0.4232997894

>  <CNNaffinity>  (156) 
4.2099733353

>  <CNN_VS>  (156) 
1.7820807695

>  <CNNaffinity_variance>  (156) 
0.6927728653

$$$$
157
     RDKit          3D

 43 45  0  0  0  0  0  0  0  0999 V2000
   19.6742   71.5586   -1.1529 P   0  0  2  0  0  0  0  0  0  0  0  0
   18.6064   72.6085   -0.5404 O   0  0  0  0  0  0  0  0  0  0  0  0
   19.2767   70.1157   -1.0465 O   0  0  0  0  0  0  0  0  0  0  0  0
   21.0678   71.9584   -0.4345 O   0  0  0  0  0  0  0  0  0  0  0  0
   21.2958   71.5159    0.8921 C   0  0  0  0  0  0  0  0  0  0  0  0
   23.1998   70.7857   -0.3789 O   0  0  0  0  0  0  0  0  0  0  0  0
   24.6073   70.4897    2.2521 O   0  0  0  0  0  0  0  0  0  0  0  0
   25.5792   72.8617    1.3216 O   0  0  0  0  0  0  0  0  0  0  0  0
   23.6549   71.4703    1.8437 C   0  0  1  0  0  0  0  0  0  0  0  0
   24.2943   72.4600    0.8922 C   0  0  2  0  0  0  0  0  0  0  0  0
   22.6302   70.7849    0.9485 C   0  0  1  0  0  0  0  0  0  0  0  0
   24.3318   71.6705   -0.4053 C   0  0  2  0  0  0  0  0  0  0  0  0
   25.2721   70.9039    2.8253 H   0  0  0  0  0  0  0  0  0  0  0  0
   25.5023   73.3601    2.1501 H   0  0  0  0  0  0  0  0  0  0  0  0
   25.0066   70.8649   -3.0270 O   0  0  0  0  0  0  0  0  0  0  0  0
   23.9300   74.9937   -4.7692 O   0  0  0  0  0  0  0  0  0  0  0  0
   24.2371   72.5145   -1.5629 N   0  0  0  0  0  0  0  0  0  0  0  0
   24.4698   72.9213   -3.8924 N   0  0  0  0  0  0  0  0  0  0  0  0
   24.6016   72.0131   -2.8342 C   0  0  0  0  0  0  0  0  0  0  0  0
   23.7865   73.8235   -1.4311 C   0  0  0  0  0  0  0  0  0  0  0  0
   23.6678   74.6773   -2.4500 C   0  0  0  0  0  0  0  0  0  0  0  0
   24.0280   74.2324   -3.8118 C   0  0  0  0  0  0  0  0  0  0  0  0
   24.7184   72.5943   -4.7874 H   0  0  0  0  0  0  0  0  0  0  0  0
   19.8797   72.0900   -2.6656 O   0  0  0  0  0  0  0  0  0  0  0  0
   20.5798   71.3982   -3.9479 P   0  0  2  0  0  0  0  0  0  0  0  0
   21.5067   70.2476   -3.2887 O   0  0  0  0  0  0  0  0  0  0  0  0
   21.3197   72.3559   -4.8363 O   0  0  0  0  0  0  0  0  0  0  0  0
   19.3878   70.5924   -4.6790 O   0  0  0  0  0  0  0  0  0  0  0  0
   17.3724   71.7435   -5.1585 O   0  0  0  0  0  0  0  0  0  0  0  0
   15.9837   67.8612   -5.3813 O   0  0  0  0  0  0  0  0  0  0  0  0
   16.2967   69.3955   -7.7888 O   0  0  0  0  0  0  0  0  0  0  0  0
   17.9319   68.5844   -3.3661 O   0  0  0  0  0  0  0  0  0  0  0  0
   16.9392   68.9141   -5.5357 C   0  0  1  0  0  0  0  0  0  0  0  0
   16.3497   69.9616   -6.4822 C   0  0  1  0  0  0  0  0  0  0  0  0
   17.2303   69.5286   -4.1678 C   0  0  2  0  0  0  0  0  0  0  0  0
   17.1964   71.2416   -6.4884 C   0  0  1  0  0  0  0  0  0  0  0  0
   18.0362   70.8231   -4.2901 C   0  0  1  0  0  0  0  0  0  0  0  0
   15.7949   67.4664   -6.2462 H   0  0  0  0  0  0  0  0  0  0  0  0
   15.7596   68.5878   -7.7709 H   0  0  0  0  0  0  0  0  0  0  0  0
   17.4112   67.7696   -3.2961 H   0  0  0  0  0  0  0  0  0  0  0  0
   15.2336   71.9468   -7.6542 O   0  0  0  0  0  0  0  0  0  0  0  0
   16.5427   72.3558   -7.3029 C   0  0  0  0  0  0  0  0  0  0  0  0
   14.8053   72.6464   -8.1727 H   0  0  0  0  0  0  0  0  0  0  0  0
 25 28  1  0
 25 24  1  0
 25 26  1  1
 25 27  2  0
  1  4  1  0
  1 24  1  0
  1  2  1  1
  1  3  2  0
  6 11  1  0
  6 12  1  0
 29 36  1  0
 29 37  1  0
  9  7  1  6
  7 13  1  0
 10  8  1  1
  8 14  1  0
 37 28  1  6
  4  5  1  0
 33 30  1  1
 30 38  1  0
 34 31  1  6
 31 39  1  0
 35 32  1  1
 32 40  1  0
 41 42  1  0
 41 43  1  0
 15 19  2  0
 16 22  2  0
 12 17  1  6
 17 19  1  0
 17 20  1  0
 18 19  1  0
 18 22  1  0
 18 23  1  0
  9 10  1  0
  9 11  1  0
 10 12  1  0
 11  5  1  6
 33 34  1  0
 33 35  1  0
 34 36  1  0
 35 37  1  0
 36 42  1  6
 20 21  2  0
 21 22  1  0
M  CHG  2   2  -1  26  -1
M  END
>  <COMPND>  (157) 
    8629 

>  <AUTHOR>  (157) 
    GENERATED BY OPEN BABEL 3.1.1

>  <MASTER>  (157) 
        0    0    0    0    0    0    0    0   58    0   58    0

>  <minimizedAffinity>  (157) 
-7.20237

>  <CNNscore>  (157) 
0.4186934829

>  <CNNaffinity>  (157) 
3.9638431072

>  <CNN_VS>  (157) 
1.6596353054

>  <CNNaffinity_variance>  (157) 
0.5227063298

$$$$
158
     RDKit          3D

 43 45  0  0  0  0  0  0  0  0999 V2000
   20.4114   70.5742   -1.3646 P   0  0  2  0  0  0  0  0  0  0  0  0
   21.4072   69.9236   -2.4612 O   0  0  0  0  0  0  0  0  0  0  0  0
   20.2523   72.0634   -1.4576 O   0  0  0  0  0  0  0  0  0  0  0  0
   20.9690   70.0141    0.0472 O   0  0  0  0  0  0  0  0  0  0  0  0
   21.5895   70.9245    0.9383 C   0  0  0  0  0  0  0  0  0  0  0  0
   23.6224   70.6713   -0.3174 O   0  0  0  0  0  0  0  0  0  0  0  0
   25.0557   70.9731    2.2989 O   0  0  0  0  0  0  0  0  0  0  0  0
   25.3182   73.4498    1.1882 O   0  0  0  0  0  0  0  0  0  0  0  0
   23.8652   71.6138    1.8432 C   0  0  1  0  0  0  0  0  0  0  0  0
   24.1992   72.6727    0.8133 C   0  0  2  0  0  0  0  0  0  0  0  0
   23.0760   70.6051    1.0180 C   0  0  1  0  0  0  0  0  0  0  0  0
   24.4584   71.8349   -0.4273 C   0  0  2  0  0  0  0  0  0  0  0  0
   25.5763   71.5978    2.8288 H   0  0  0  0  0  0  0  0  0  0  0  0
   25.1034   73.9644    1.9818 H   0  0  0  0  0  0  0  0  0  0  0  0
   25.2711   71.0239   -3.0079 O   0  0  0  0  0  0  0  0  0  0  0  0
   23.1383   74.5909   -5.0002 O   0  0  0  0  0  0  0  0  0  0  0  0
   24.1293   72.5328   -1.6381 N   0  0  0  0  0  0  0  0  0  0  0  0
   24.2083   72.8006   -3.9978 N   0  0  0  0  0  0  0  0  0  0  0  0
   24.5879   72.0424   -2.8829 C   0  0  0  0  0  0  0  0  0  0  0  0
   23.3597   73.6898   -1.5837 C   0  0  0  0  0  0  0  0  0  0  0  0
   23.0074   74.4020   -2.6561 C   0  0  0  0  0  0  0  0  0  0  0  0
   23.4457   73.9578   -3.9950 C   0  0  0  0  0  0  0  0  0  0  0  0
   24.5167   72.4782   -4.8758 H   0  0  0  0  0  0  0  0  0  0  0  0
   19.0443   69.7372   -1.5731 O   0  0  0  0  0  0  0  0  0  0  0  0
   17.6207   70.1698   -2.2048 P   0  0  2  0  0  0  0  0  0  0  0  0
   17.0586   71.2547   -1.1443 O   0  0  0  0  0  0  0  0  0  0  0  0
   16.6900   69.0216   -2.4682 O   0  0  0  0  0  0  0  0  0  0  0  0
   18.0003   71.0366   -3.5122 O   0  0  0  0  0  0  0  0  0  0  0  0
   17.7149   69.7422   -5.4769 O   0  0  0  0  0  0  0  0  0  0  0  0
   19.5235   73.0646   -7.1326 O   0  0  0  0  0  0  0  0  0  0  0  0
   16.7259   72.5996   -7.5854 O   0  0  0  0  0  0  0  0  0  0  0  0
   20.3871   72.0879   -4.5481 O   0  0  0  0  0  0  0  0  0  0  0  0
   18.6756   72.3614   -6.2206 C   0  0  1  0  0  0  0  0  0  0  0  0
   17.6058   71.6260   -7.0302 C   0  0  1  0  0  0  0  0  0  0  0  0
   19.5178   71.3713   -5.4182 C   0  0  2  0  0  0  0  0  0  0  0  0
   16.8252   70.6403   -6.1504 C   0  0  1  0  0  0  0  0  0  0  0  0
   18.6433   70.4055   -4.6166 C   0  0  1  0  0  0  0  0  0  0  0  0
   18.9950   73.6953   -7.6449 H   0  0  0  0  0  0  0  0  0  0  0  0
   17.2313   73.2161   -8.1383 H   0  0  0  0  0  0  0  0  0  0  0  0
   20.9355   72.6955   -5.0676 H   0  0  0  0  0  0  0  0  0  0  0  0
   16.3266   69.7339   -8.3042 O   0  0  0  0  0  0  0  0  0  0  0  0
   15.8612   69.7834   -6.9680 C   0  0  0  0  0  0  0  0  0  0  0  0
   15.7229   69.1916   -8.8363 H   0  0  0  0  0  0  0  0  0  0  0  0
 25 28  1  0
 25 24  1  0
 25 26  1  1
 25 27  2  0
  1  4  1  0
  1 24  1  0
  1  2  1  6
  1  3  2  0
  6 11  1  0
  6 12  1  0
 29 36  1  0
 29 37  1  0
  9  7  1  6
  7 13  1  0
 10  8  1  1
  8 14  1  0
 37 28  1  1
  4  5  1  0
 33 30  1  6
 30 38  1  0
 34 31  1  1
 31 39  1  0
 35 32  1  1
 32 40  1  0
 41 42  1  0
 41 43  1  0
 15 19  2  0
 16 22  2  0
 12 17  1  6
 17 19  1  0
 17 20  1  0
 18 19  1  0
 18 22  1  0
 18 23  1  0
  9 10  1  0
  9 11  1  0
 10 12  1  0
 11  5  1  6
 33 34  1  0
 33 35  1  0
 34 36  1  0
 35 37  1  0
 36 42  1  6
 20 21  2  0
 21 22  1  0
M  CHG  2   2  -1  26  -1
M  END
>  <COMPND>  (158) 
    8629 

>  <AUTHOR>  (158) 
    GENERATED BY OPEN BABEL 3.1.1

>  <MASTER>  (158) 
        0    0    0    0    0    0    0    0   58    0   58    0

>  <minimizedAffinity>  (158) 
-7.59858

>  <CNNscore>  (158) 
0.4017488062

>  <CNNaffinity>  (158) 
3.8183066845

>  <CNN_VS>  (158) 
1.5340001583

>  <CNNaffinity_variance>  (158) 
0.7129640579

$$$$
159
     RDKit          3D

 43 45  0  0  0  0  0  0  0  0999 V2000
   17.3988   70.0238   -2.3934 P   0  0  2  0  0  0  0  0  0  0  0  0
   17.2476   68.5384   -1.7704 O   0  0  0  0  0  0  0  0  0  0  0  0
   16.2161   70.9228   -2.1830 O   0  0  0  0  0  0  0  0  0  0  0  0
   17.8140   69.7582   -3.9345 O   0  0  0  0  0  0  0  0  0  0  0  0
   16.9197   69.0328   -4.7603 C   0  0  0  0  0  0  0  0  0  0  0  0
   16.9564   71.2543   -5.6753 O   0  0  0  0  0  0  0  0  0  0  0  0
   15.2666   70.1644   -7.8996 O   0  0  0  0  0  0  0  0  0  0  0  0
   17.7495   70.2459   -9.0245 O   0  0  0  0  0  0  0  0  0  0  0  0
   16.3289   69.5372   -7.1830 C   0  0  1  0  0  0  0  0  0  0  0  0
   17.6641   70.1017   -7.6214 C   0  0  2  0  0  0  0  0  0  0  0  0
   16.2508   69.9953   -5.7320 C   0  0  1  0  0  0  0  0  0  0  0  0
   17.6968   71.4348   -6.8935 C   0  0  2  0  0  0  0  0  0  0  0  0
   15.2957   69.8868   -8.8291 H   0  0  0  0  0  0  0  0  0  0  0  0
   17.7247   69.3707   -9.4417 H   0  0  0  0  0  0  0  0  0  0  0  0
   18.4880   74.1208   -6.5229 O   0  0  0  0  0  0  0  0  0  0  0  0
   22.8494   72.9084   -5.6572 O   0  0  0  0  0  0  0  0  0  0  0  0
   19.0327   71.8497   -6.5702 N   0  0  0  0  0  0  0  0  0  0  0  0
   20.6590   73.5149   -6.0920 N   0  0  0  0  0  0  0  0  0  0  0  0
   19.3254   73.2237   -6.4062 C   0  0  0  0  0  0  0  0  0  0  0  0
   20.0361   70.8988   -6.4186 C   0  0  0  0  0  0  0  0  0  0  0  0
   21.3032   71.1930   -6.1201 C   0  0  0  0  0  0  0  0  0  0  0  0
   21.6925   72.6055   -5.9321 C   0  0  0  0  0  0  0  0  0  0  0  0
   20.8863   74.4657   -5.9734 H   0  0  0  0  0  0  0  0  0  0  0  0
   18.7747   70.5566   -1.7331 O   0  0  0  0  0  0  0  0  0  0  0  0
   19.4458   72.0271   -1.7193 P   0  0  2  0  0  0  0  0  0  0  0  0
   18.5038   72.8552   -0.6973 O   0  0  0  0  0  0  0  0  0  0  0  0
   19.5861   72.6523   -3.0770 O   0  0  0  0  0  0  0  0  0  0  0  0
   20.8375   71.8336   -0.9250 O   0  0  0  0  0  0  0  0  0  0  0  0
   22.7671   71.5468   -2.2707 O   0  0  0  0  0  0  0  0  0  0  0  0
   24.2822   70.2415    1.3420 O   0  0  0  0  0  0  0  0  0  0  0  0
   25.1131   72.7816    0.2906 O   0  0  0  0  0  0  0  0  0  0  0  0
   21.5619   69.5900    0.5970 O   0  0  0  0  0  0  0  0  0  0  0  0
   23.4732   71.0513    0.4846 C   0  0  1  0  0  0  0  0  0  0  0  0
   24.3970   71.8117   -0.4689 C   0  0  1  0  0  0  0  0  0  0  0  0
   22.5175   70.1513   -0.2964 C   0  0  2  0  0  0  0  0  0  0  0  0
   23.5984   72.4929   -1.5884 C   0  0  1  0  0  0  0  0  0  0  0  0
   21.8105   70.9158   -1.4171 C   0  0  1  0  0  0  0  0  0  0  0  0
   24.8909   70.8069    1.8411 H   0  0  0  0  0  0  0  0  0  0  0  0
   25.6127   72.3385    0.9943 H   0  0  0  0  0  0  0  0  0  0  0  0
   22.0219   69.1084    1.3015 H   0  0  0  0  0  0  0  0  0  0  0  0
   24.9235   72.1148   -3.5404 O   0  0  0  0  0  0  0  0  0  0  0  0
   24.5099   73.1245   -2.6383 C   0  0  0  0  0  0  0  0  0  0  0  0
   25.5040   72.5023   -4.2145 H   0  0  0  0  0  0  0  0  0  0  0  0
 25 28  1  0
 25 24  1  0
 25 26  1  1
 25 27  2  0
  1  4  1  0
  1 24  1  0
  1  2  1  1
  1  3  2  0
  6 11  1  0
  6 12  1  0
 29 36  1  0
 29 37  1  0
  9  7  1  6
  7 13  1  0
 10  8  1  6
  8 14  1  0
 37 28  1  1
  4  5  1  0
 33 30  1  1
 30 38  1  0
 34 31  1  1
 31 39  1  0
 35 32  1  1
 32 40  1  0
 41 42  1  0
 41 43  1  0
 15 19  2  0
 16 22  2  0
 12 17  1  1
 17 19  1  0
 17 20  1  0
 18 19  1  0
 18 22  1  0
 18 23  1  0
  9 10  1  0
  9 11  1  0
 10 12  1  0
 11  5  1  1
 33 34  1  0
 33 35  1  0
 34 36  1  0
 35 37  1  0
 36 42  1  6
 20 21  2  0
 21 22  1  0
M  CHG  2   2  -1  26  -1
M  END
>  <COMPND>  (159) 
    8629 

>  <AUTHOR>  (159) 
    GENERATED BY OPEN BABEL 3.1.1

>  <MASTER>  (159) 
        0    0    0    0    0    0    0    0   58    0   58    0

>  <minimizedAffinity>  (159) 
-7.81243

>  <CNNscore>  (159) 
0.3700217605

>  <CNNaffinity>  (159) 
3.9548637867

>  <CNN_VS>  (159) 
1.4633857012

>  <CNNaffinity_variance>  (159) 
1.1023300886

$$$$
160
     RDKit          3D

 43 45  0  0  0  0  0  0  0  0999 V2000
   22.6859   72.6367   -3.9543 P   0  0  2  0  0  0  0  0  0  0  0  0
   23.6939   72.4679   -5.2085 O   0  0  0  0  0  0  0  0  0  0  0  0
   22.3268   74.0537   -3.6161 O   0  0  0  0  0  0  0  0  0  0  0  0
   23.3930   71.7895   -2.7710 O   0  0  0  0  0  0  0  0  0  0  0  0
   23.2381   72.2352   -1.4349 C   0  0  0  0  0  0  0  0  0  0  0  0
   24.2706   71.1529    0.4457 O   0  0  0  0  0  0  0  0  0  0  0  0
   21.7308   69.5788    0.6958 O   0  0  0  0  0  0  0  0  0  0  0  0
   21.4480   71.4755    2.6347 O   0  0  0  0  0  0  0  0  0  0  0  0
   21.9143   70.9398    0.3094 C   0  0  1  0  0  0  0  0  0  0  0  0
   22.2543   71.7880    1.5171 C   0  0  2  0  0  0  0  0  0  0  0  0
   23.1955   71.0260   -0.5107 C   0  0  1  0  0  0  0  0  0  0  0  0
   23.7183   71.4479    1.7390 C   0  0  2  0  0  0  0  0  0  0  0  0
   20.9183   69.4986    1.2206 H   0  0  0  0  0  0  0  0  0  0  0  0
   20.5263   71.7101    2.4443 H   0  0  0  0  0  0  0  0  0  0  0  0
   26.4230   71.3028    2.5399 O   0  0  0  0  0  0  0  0  0  0  0  0
   26.4267   75.6859    3.9645 O   0  0  0  0  0  0  0  0  0  0  0  0
   24.4511   72.5363    2.3218 N   0  0  0  0  0  0  0  0  0  0  0  0
   26.4227   73.4854    3.2484 N   0  0  0  0  0  0  0  0  0  0  0  0
   25.8052   72.3590    2.6899 C   0  0  0  0  0  0  0  0  0  0  0  0
   23.8274   73.7628    2.5227 C   0  0  0  0  0  0  0  0  0  0  0  0
   24.4299   74.8268    3.0577 C   0  0  0  0  0  0  0  0  0  0  0  0
   25.8448   74.7255    3.4695 C   0  0  0  0  0  0  0  0  0  0  0  0
   27.3660   73.3853    3.5129 H   0  0  0  0  0  0  0  0  0  0  0  0
   21.4314   71.7052   -4.3684 O   0  0  0  0  0  0  0  0  0  0  0  0
   20.2475   71.0608   -3.4761 P   0  0  2  0  0  0  0  0  0  0  0  0
   19.7601   72.2993   -2.5563 O   0  0  0  0  0  0  0  0  0  0  0  0
   20.6540   69.8388   -2.7044 O   0  0  0  0  0  0  0  0  0  0  0  0
   19.0357   70.8232   -4.5153 O   0  0  0  0  0  0  0  0  0  0  0  0
   16.9286   71.8627   -4.8251 O   0  0  0  0  0  0  0  0  0  0  0  0
   15.8040   67.9237   -5.3451 O   0  0  0  0  0  0  0  0  0  0  0  0
   15.9164   69.6779   -7.6163 O   0  0  0  0  0  0  0  0  0  0  0  0
   17.7743   68.6099   -3.3385 O   0  0  0  0  0  0  0  0  0  0  0  0
   16.6777   69.0523   -5.4368 C   0  0  1  0  0  0  0  0  0  0  0  0
   15.9809   70.1319   -6.2672 C   0  0  1  0  0  0  0  0  0  0  0  0
   16.9784   69.5663   -4.0302 C   0  0  2  0  0  0  0  0  0  0  0  0
   16.7361   71.4655   -6.1878 C   0  0  1  0  0  0  0  0  0  0  0  0
   17.6876   70.9214   -4.0637 C   0  0  1  0  0  0  0  0  0  0  0  0
   15.6094   67.5921   -6.2349 H   0  0  0  0  0  0  0  0  0  0  0  0
   15.4376   68.8349   -7.6525 H   0  0  0  0  0  0  0  0  0  0  0  0
   17.3143   67.7567   -3.3239 H   0  0  0  0  0  0  0  0  0  0  0  0
   16.2067   72.5058   -8.2725 O   0  0  0  0  0  0  0  0  0  0  0  0
   15.9758   72.5954   -6.8786 C   0  0  0  0  0  0  0  0  0  0  0  0
   15.7287   73.2187   -8.7253 H   0  0  0  0  0  0  0  0  0  0  0  0
 25 28  1  0
 25 24  1  0
 25 26  1  1
 25 27  2  0
  1  4  1  0
  1 24  1  0
  1  2  1  6
  1  3  2  0
  6 11  1  0
  6 12  1  0
 29 36  1  0
 29 37  1  0
  9  7  1  1
  7 13  1  0
 10  8  1  1
  8 14  1  0
 37 28  1  6
  4  5  1  0
 33 30  1  1
 30 38  1  0
 34 31  1  6
 31 39  1  0
 35 32  1  6
 32 40  1  0
 41 42  1  0
 41 43  1  0
 15 19  2  0
 16 22  2  0
 12 17  1  6
 17 19  1  0
 17 20  1  0
 18 19  1  0
 18 22  1  0
 18 23  1  0
  9 10  1  0
  9 11  1  0
 10 12  1  0
 11  5  1  6
 33 34  1  0
 33 35  1  0
 34 36  1  0
 35 37  1  0
 36 42  1  6
 20 21  2  0
 21 22  1  0
M  CHG  2   2  -1  26  -1
M  END
>  <COMPND>  (160) 
    8629 

>  <AUTHOR>  (160) 
    GENERATED BY OPEN BABEL 3.1.1

>  <MASTER>  (160) 
        0    0    0    0    0    0    0    0   58    0   58    0

>  <minimizedAffinity>  (160) 
-7.39295

>  <CNNscore>  (160) 
0.3694894314

>  <CNNaffinity>  (160) 
4.0733957291

>  <CNN_VS>  (160) 
1.5050766468

>  <CNNaffinity_variance>  (160) 
0.1133444086

$$$$
161
     RDKit          3D

 43 45  0  0  0  0  0  0  0  0999 V2000
   23.9065   72.9624   -3.2517 P   0  0  2  0  0  0  0  0  0  0  0  0
   23.8755   74.2563   -2.2811 O   0  0  0  0  0  0  0  0  0  0  0  0
   25.2028   72.7435   -3.9749 O   0  0  0  0  0  0  0  0  0  0  0  0
   22.6015   73.1492   -4.1897 O   0  0  0  0  0  0  0  0  0  0  0  0
   22.0936   72.0175   -4.8747 C   0  0  0  0  0  0  0  0  0  0  0  0
   21.0565   71.3260   -6.9290 O   0  0  0  0  0  0  0  0  0  0  0  0
   21.1656   74.2114   -7.7373 O   0  0  0  0  0  0  0  0  0  0  0  0
   18.5696   73.9101   -6.9586 O   0  0  0  0  0  0  0  0  0  0  0  0
   20.9320   73.6434   -6.4496 C   0  0  1  0  0  0  0  0  0  0  0  0
   19.5367   73.0590   -6.3779 C   0  0  2  0  0  0  0  0  0  0  0  0
   21.8043   72.4010   -6.3195 C   0  0  1  0  0  0  0  0  0  0  0  0
   19.7016   71.7554   -7.1405 C   0  0  2  0  0  0  0  0  0  0  0  0
   20.6196   75.0067   -7.8436 H   0  0  0  0  0  0  0  0  0  0  0  0
   18.5016   74.7254   -6.4376 H   0  0  0  0  0  0  0  0  0  0  0  0
   18.1833   70.0724   -8.8258 O   0  0  0  0  0  0  0  0  0  0  0  0
   16.3122   67.8632   -5.2397 O   0  0  0  0  0  0  0  0  0  0  0  0
   18.8097   70.7315   -6.6740 N   0  0  0  0  0  0  0  0  0  0  0  0
   17.2530   68.9737   -7.0389 N   0  0  0  0  0  0  0  0  0  0  0  0
   18.0932   69.9419   -7.6033 C   0  0  0  0  0  0  0  0  0  0  0  0
   18.6529   70.5183   -5.3088 C   0  0  0  0  0  0  0  0  0  0  0  0
   17.8467   69.5917   -4.7866 C   0  0  0  0  0  0  0  0  0  0  0  0
   17.0622   68.7243   -5.6890 C   0  0  0  0  0  0  0  0  0  0  0  0
   16.7435   68.4120   -7.6671 H   0  0  0  0  0  0  0  0  0  0  0  0
   23.4749   71.7572   -2.2647 O   0  0  0  0  0  0  0  0  0  0  0  0
   22.4987   71.7380   -0.9764 P   0  0  2  0  0  0  0  0  0  0  0  0
   22.1557   70.1675   -0.7942 O   0  0  0  0  0  0  0  0  0  0  0  0
   21.2937   72.6243   -1.1042 O   0  0  0  0  0  0  0  0  0  0  0  0
   23.4605   72.0925    0.2703 O   0  0  0  0  0  0  0  0  0  0  0  0
   24.8995   71.1468    1.8986 O   0  0  0  0  0  0  0  0  0  0  0  0
   22.0450   72.7688    4.4030 O   0  0  0  0  0  0  0  0  0  0  0  0
   24.6377   73.9916    4.2282 O   0  0  0  0  0  0  0  0  0  0  0  0
   21.2461   71.5443    1.9046 O   0  0  0  0  0  0  0  0  0  0  0  0
   22.8766   72.7094    3.2409 C   0  0  1  0  0  0  0  0  0  0  0  0
   24.3372   72.7044    3.6961 C   0  0  1  0  0  0  0  0  0  0  0  0
   22.5525   71.4372    2.4598 C   0  0  2  0  0  0  0  0  0  0  0  0
   25.2796   72.3747    2.5306 C   0  0  1  0  0  0  0  0  0  0  0  0
   23.5782   71.1759    1.3553 C   0  0  1  0  0  0  0  0  0  0  0  0
   22.2454   73.5745    4.9032 H   0  0  0  0  0  0  0  0  0  0  0  0
   24.0354   74.1878    4.9630 H   0  0  0  0  0  0  0  0  0  0  0  0
   20.6061   71.7094    2.6138 H   0  0  0  0  0  0  0  0  0  0  0  0
   27.4455   71.5275    1.9830 O   0  0  0  0  0  0  0  0  0  0  0  0
   26.7255   72.2094    2.9934 C   0  0  0  0  0  0  0  0  0  0  0  0
   28.3677   71.4154    2.2637 H   0  0  0  0  0  0  0  0  0  0  0  0
 25 28  1  0
 25 24  1  0
 25 26  1  1
 25 27  2  0
  1  4  1  0
  1 24  1  0
  1  2  1  1
  1  3  2  0
  6 11  1  0
  6 12  1  0
 29 36  1  0
 29 37  1  0
  9  7  1  6
  7 13  1  0
 10  8  1  6
  8 14  1  0
 37 28  1  6
  4  5  1  0
 33 30  1  1
 30 38  1  0
 34 31  1  6
 31 39  1  0
 35 32  1  6
 32 40  1  0
 41 42  1  0
 41 43  1  0
 15 19  2  0
 16 22  2  0
 12 17  1  1
 17 19  1  0
 17 20  1  0
 18 19  1  0
 18 22  1  0
 18 23  1  0
  9 10  1  0
  9 11  1  0
 10 12  1  0
 11  5  1  1
 33 34  1  0
 33 35  1  0
 34 36  1  0
 35 37  1  0
 36 42  1  1
 20 21  2  0
 21 22  1  0
M  CHG  2   2  -1  26  -1
M  END
>  <COMPND>  (161) 
    8629 

>  <AUTHOR>  (161) 
    GENERATED BY OPEN BABEL 3.1.1

>  <MASTER>  (161) 
        0    0    0    0    0    0    0    0   58    0   58    0

>  <minimizedAffinity>  (161) 
-7.30950

>  <CNNscore>  (161) 
0.6432284117

>  <CNNaffinity>  (161) 
4.2750005722

>  <CNN_VS>  (161) 
2.7498018742

>  <CNNaffinity_variance>  (161) 
0.0883315355

$$$$
162
     RDKit          3D

 43 45  0  0  0  0  0  0  0  0999 V2000
   18.3978   69.9643   -2.5328 P   0  0  2  0  0  0  0  0  0  0  0  0
   17.8076   68.5798   -1.9394 O   0  0  0  0  0  0  0  0  0  0  0  0
   17.8796   71.2084   -1.8733 O   0  0  0  0  0  0  0  0  0  0  0  0
   18.1312   69.8496   -4.1245 O   0  0  0  0  0  0  0  0  0  0  0  0
   16.9839   69.1468   -4.5690 C   0  0  0  0  0  0  0  0  0  0  0  0
   16.9714   71.2378   -5.7528 O   0  0  0  0  0  0  0  0  0  0  0  0
   15.0747   69.9268   -7.6698 O   0  0  0  0  0  0  0  0  0  0  0  0
   17.4486   69.8065   -9.0065 O   0  0  0  0  0  0  0  0  0  0  0  0
   16.1872   69.3653   -6.9754 C   0  0  1  0  0  0  0  0  0  0  0  0
   17.4862   69.8376   -7.5943 C   0  0  2  0  0  0  0  0  0  0  0  0
   16.2452   69.9996   -5.5913 C   0  0  1  0  0  0  0  0  0  0  0  0
   17.6030   71.2486   -7.0435 C   0  0  2  0  0  0  0  0  0  0  0  0
   15.0169   69.5367   -8.5566 H   0  0  0  0  0  0  0  0  0  0  0  0
   17.3740   68.8876   -9.3080 H   0  0  0  0  0  0  0  0  0  0  0  0
   18.4187   73.9219   -6.6357 O   0  0  0  0  0  0  0  0  0  0  0  0
   22.8684   72.7320   -6.4733 O   0  0  0  0  0  0  0  0  0  0  0  0
   18.9683   71.6658   -6.8910 N   0  0  0  0  0  0  0  0  0  0  0  0
   20.6336   73.3272   -6.5550 N   0  0  0  0  0  0  0  0  0  0  0  0
   19.2710   73.0330   -6.6917 C   0  0  0  0  0  0  0  0  0  0  0  0
   19.9903   70.7239   -6.9394 C   0  0  0  0  0  0  0  0  0  0  0  0
   21.2848   71.0210   -6.8086 C   0  0  0  0  0  0  0  0  0  0  0  0
   21.6863   72.4267   -6.5971 C   0  0  0  0  0  0  0  0  0  0  0  0
   20.8684   74.2734   -6.4156 H   0  0  0  0  0  0  0  0  0  0  0  0
   19.9968   69.7572   -2.4163 O   0  0  0  0  0  0  0  0  0  0  0  0
   21.0815   70.4112   -1.4121 P   0  0  2  0  0  0  0  0  0  0  0  0
   22.4972   70.0345   -2.0987 O   0  0  0  0  0  0  0  0  0  0  0  0
   20.9469   69.9643    0.0148 O   0  0  0  0  0  0  0  0  0  0  0  0
   20.9331   72.0034   -1.6312 O   0  0  0  0  0  0  0  0  0  0  0  0
   19.9897   73.2009   -3.4456 O   0  0  0  0  0  0  0  0  0  0  0  0
   23.0745   75.7740   -2.4896 O   0  0  0  0  0  0  0  0  0  0  0  0
   20.3698   76.5075   -1.8611 O   0  0  0  0  0  0  0  0  0  0  0  0
   23.4874   72.9120   -2.3557 O   0  0  0  0  0  0  0  0  0  0  0  0
   22.0353   74.8289   -2.2206 C   0  0  1  0  0  0  0  0  0  0  0  0
   20.7120   75.4180   -2.7132 C   0  0  1  0  0  0  0  0  0  0  0  0
   22.3472   73.5233   -2.9495 C   0  0  2  0  0  0  0  0  0  0  0  0
   19.5983   74.3623   -2.7041 C   0  0  1  0  0  0  0  0  0  0  0  0
   21.1566   72.5631   -2.9227 C   0  0  1  0  0  0  0  0  0  0  0  0
   22.8828   76.6052   -2.0292 H   0  0  0  0  0  0  0  0  0  0  0  0
   21.0815   77.1667   -1.8755 H   0  0  0  0  0  0  0  0  0  0  0  0
   24.2343   73.5297   -2.3792 H   0  0  0  0  0  0  0  0  0  0  0  0
   18.6518   75.8362   -4.3291 O   0  0  0  0  0  0  0  0  0  0  0  0
   18.3108   74.8837   -3.3388 C   0  0  0  0  0  0  0  0  0  0  0  0
   17.8421   76.1765   -4.7419 H   0  0  0  0  0  0  0  0  0  0  0  0
 25 28  1  0
 25 24  1  0
 25 26  1  6
 25 27  2  0
  1  4  1  0
  1 24  1  0
  1  2  1  1
  1  3  2  0
  6 11  1  0
  6 12  1  0
 29 36  1  0
 29 37  1  0
  9  7  1  6
  7 13  1  0
 10  8  1  6
  8 14  1  0
 37 28  1  1
  4  5  1  0
 33 30  1  6
 30 38  1  0
 34 31  1  1
 31 39  1  0
 35 32  1  1
 32 40  1  0
 41 42  1  0
 41 43  1  0
 15 19  2  0
 16 22  2  0
 12 17  1  1
 17 19  1  0
 17 20  1  0
 18 19  1  0
 18 22  1  0
 18 23  1  0
  9 10  1  0
  9 11  1  0
 10 12  1  0
 11  5  1  1
 33 34  1  0
 33 35  1  0
 34 36  1  0
 35 37  1  0
 36 42  1  6
 20 21  2  0
 21 22  1  0
M  CHG  2   2  -1  26  -1
M  END
>  <COMPND>  (162) 
    8629 

>  <AUTHOR>  (162) 
    GENERATED BY OPEN BABEL 3.1.1

>  <MASTER>  (162) 
        0    0    0    0    0    0    0    0   58    0   58    0

>  <minimizedAffinity>  (162) 
-6.23748

>  <CNNscore>  (162) 
0.5800112486

>  <CNNaffinity>  (162) 
4.2081050873

>  <CNN_VS>  (162) 
2.4407482147

>  <CNNaffinity_variance>  (162) 
0.3952138722

$$$$
163
     RDKit          3D

 43 45  0  0  0  0  0  0  0  0999 V2000
   23.8108   73.0143   -2.9594 P   0  0  2  0  0  0  0  0  0  0  0  0
   24.2773   72.4642   -4.4076 O   0  0  0  0  0  0  0  0  0  0  0  0
   23.9659   74.4938   -2.7635 O   0  0  0  0  0  0  0  0  0  0  0  0
   24.6137   72.0788   -1.9115 O   0  0  0  0  0  0  0  0  0  0  0  0
   24.5650   72.4099   -0.5346 C   0  0  0  0  0  0  0  0  0  0  0  0
   24.9255   71.1391    1.4726 O   0  0  0  0  0  0  0  0  0  0  0  0
   22.2659   69.8684    0.9225 O   0  0  0  0  0  0  0  0  0  0  0  0
   21.6604   71.7068    2.8435 O   0  0  0  0  0  0  0  0  0  0  0  0
   22.6878   71.2123    0.6961 C   0  0  1  0  0  0  0  0  0  0  0  0
   22.7697   71.9656    2.0074 C   0  0  2  0  0  0  0  0  0  0  0  0
   24.1463   71.1786    0.2570 C   0  0  1  0  0  0  0  0  0  0  0  0
   24.0737   71.4459    2.5884 C   0  0  2  0  0  0  0  0  0  0  0  0
   21.3370   69.8643    1.2038 H   0  0  0  0  0  0  0  0  0  0  0  0
   20.8555   72.0563    2.4305 H   0  0  0  0  0  0  0  0  0  0  0  0
   23.2764   72.0843    5.2218 O   0  0  0  0  0  0  0  0  0  0  0  0
   26.6549   75.1841    5.6888 O   0  0  0  0  0  0  0  0  0  0  0  0
   24.7273   72.4157    3.4212 N   0  0  0  0  0  0  0  0  0  0  0  0
   24.9594   73.6271    5.4522 N   0  0  0  0  0  0  0  0  0  0  0  0
   24.2470   72.6624    4.7285 C   0  0  0  0  0  0  0  0  0  0  0  0
   25.8319   73.1103    2.9402 C   0  0  0  0  0  0  0  0  0  0  0  0
   26.4993   74.0281    3.6426 C   0  0  0  0  0  0  0  0  0  0  0  0
   26.0622   74.3451    5.0175 C   0  0  0  0  0  0  0  0  0  0  0  0
   24.6427   73.8158    6.3654 H   0  0  0  0  0  0  0  0  0  0  0  0
   22.2918   72.4751   -2.8379 O   0  0  0  0  0  0  0  0  0  0  0  0
   21.6717   70.9953   -3.0344 P   0  0  2  0  0  0  0  0  0  0  0  0
   20.3505   71.0197   -2.1009 O   0  0  0  0  0  0  0  0  0  0  0  0
   22.6286   69.8809   -2.7241 O   0  0  0  0  0  0  0  0  0  0  0  0
   21.1034   70.9878   -4.5450 O   0  0  0  0  0  0  0  0  0  0  0  0
   20.5081   72.8697   -5.8568 O   0  0  0  0  0  0  0  0  0  0  0  0
   17.8015   70.1362   -7.3579 O   0  0  0  0  0  0  0  0  0  0  0  0
   20.0417   70.9421   -8.9641 O   0  0  0  0  0  0  0  0  0  0  0  0
   18.4262   70.1467   -4.5314 O   0  0  0  0  0  0  0  0  0  0  0  0
   19.0534   70.5685   -6.8183 C   0  0  1  0  0  0  0  0  0  0  0  0
   19.6509   71.6093   -7.7673 C   0  0  1  0  0  0  0  0  0  0  0  0
   18.8186   71.1738   -5.4356 C   0  0  2  0  0  0  0  0  0  0  0  0
   20.8565   72.3129   -7.1297 C   0  0  1  0  0  0  0  0  0  0  0  0
   20.0649   71.8915   -4.9141 C   0  0  1  0  0  0  0  0  0  0  0  0
   17.9436   69.7504   -8.2357 H   0  0  0  0  0  0  0  0  0  0  0  0
   19.2715   70.5015   -9.3564 H   0  0  0  0  0  0  0  0  0  0  0  0
   17.6362   69.7002   -4.8726 H   0  0  0  0  0  0  0  0  0  0  0  0
   22.0727   72.9173   -9.0955 O   0  0  0  0  0  0  0  0  0  0  0  0
   21.3705   73.4624   -7.9937 C   0  0  0  0  0  0  0  0  0  0  0  0
   22.4054   73.6374   -9.6545 H   0  0  0  0  0  0  0  0  0  0  0  0
 25 28  1  0
 25 24  1  0
 25 26  1  1
 25 27  2  0
  1  4  1  0
  1 24  1  0
  1  2  1  6
  1  3  2  0
  6 11  1  0
  6 12  1  0
 29 36  1  0
 29 37  1  0
  9  7  1  1
  7 13  1  0
 10  8  1  1
  8 14  1  0
 37 28  1  6
  4  5  1  0
 33 30  1  6
 30 38  1  0
 34 31  1  6
 31 39  1  0
 35 32  1  1
 32 40  1  0
 41 42  1  0
 41 43  1  0
 15 19  2  0
 16 22  2  0
 12 17  1  1
 17 19  1  0
 17 20  1  0
 18 19  1  0
 18 22  1  0
 18 23  1  0
  9 10  1  0
  9 11  1  0
 10 12  1  0
 11  5  1  1
 33 34  1  0
 33 35  1  0
 34 36  1  0
 35 37  1  0
 36 42  1  6
 20 21  2  0
 21 22  1  0
M  CHG  2   2  -1  26  -1
M  END
>  <COMPND>  (163) 
    8629 

>  <AUTHOR>  (163) 
    GENERATED BY OPEN BABEL 3.1.1

>  <MASTER>  (163) 
        0    0    0    0    0    0    0    0   58    0   58    0

>  <minimizedAffinity>  (163) 
-6.83198

>  <CNNscore>  (163) 
0.5088713765

>  <CNNaffinity>  (163) 
4.1652975082

>  <CNN_VS>  (163) 
2.1196007729

>  <CNNaffinity_variance>  (163) 
0.1216296554

$$$$
164
     RDKit          3D

 43 45  0  0  0  0  0  0  0  0999 V2000
   23.6718   72.0405   -3.0729 P   0  0  2  0  0  0  0  0  0  0  0  0
   23.1829   70.4994   -3.1311 O   0  0  0  0  0  0  0  0  0  0  0  0
   24.9746   72.3186   -3.7636 O   0  0  0  0  0  0  0  0  0  0  0  0
   23.6199   72.4053   -1.4975 O   0  0  0  0  0  0  0  0  0  0  0  0
   24.6697   71.9482   -0.6627 C   0  0  0  0  0  0  0  0  0  0  0  0
   24.8837   70.8355    1.4563 O   0  0  0  0  0  0  0  0  0  0  0  0
   22.1717   69.6784    0.9111 O   0  0  0  0  0  0  0  0  0  0  0  0
   21.6145   71.7068    2.6465 O   0  0  0  0  0  0  0  0  0  0  0  0
   22.6822   70.9712    0.5897 C   0  0  1  0  0  0  0  0  0  0  0  0
   22.7654   71.8283    1.8356 C   0  0  2  0  0  0  0  0  0  0  0  0
   24.1501   70.8156    0.2122 C   0  0  1  0  0  0  0  0  0  0  0  0
   24.0147   71.2857    2.5085 C   0  0  2  0  0  0  0  0  0  0  0  0
   21.2353   69.7522    1.1552 H   0  0  0  0  0  0  0  0  0  0  0  0
   20.8469   72.0656    2.1746 H   0  0  0  0  0  0  0  0  0  0  0  0
   23.2171   72.1314    5.0827 O   0  0  0  0  0  0  0  0  0  0  0  0
   26.7097   75.1236    5.3819 O   0  0  0  0  0  0  0  0  0  0  0  0
   24.6976   72.2840    3.2821 N   0  0  0  0  0  0  0  0  0  0  0  0
   24.9569   73.6205    5.2297 N   0  0  0  0  0  0  0  0  0  0  0  0
   24.2144   72.6370    4.5637 C   0  0  0  0  0  0  0  0  0  0  0  0
   25.8332   72.9013    2.7692 C   0  0  0  0  0  0  0  0  0  0  0  0
   26.5291   73.8383    3.4165 C   0  0  0  0  0  0  0  0  0  0  0  0
   26.0912   74.2645    4.7613 C   0  0  0  0  0  0  0  0  0  0  0  0
   24.6388   73.8828    6.1240 H   0  0  0  0  0  0  0  0  0  0  0  0
   22.4061   72.8463   -3.6743 O   0  0  0  0  0  0  0  0  0  0  0  0
   20.8526   72.8685   -3.2283 P   0  0  2  0  0  0  0  0  0  0  0  0
   20.5257   74.4478   -3.1005 O   0  0  0  0  0  0  0  0  0  0  0  0
   20.5564   72.0727   -1.9902 O   0  0  0  0  0  0  0  0  0  0  0  0
   20.0440   72.3897   -4.5405 O   0  0  0  0  0  0  0  0  0  0  0  0
   18.8476   70.3608   -4.8027 O   0  0  0  0  0  0  0  0  0  0  0  0
   20.0473   70.9293   -8.7127 O   0  0  0  0  0  0  0  0  0  0  0  0
   17.2942   71.3323   -8.0015 O   0  0  0  0  0  0  0  0  0  0  0  0
   21.8429   71.5908   -6.5407 O   0  0  0  0  0  0  0  0  0  0  0  0
   19.6121   71.3330   -7.4116 C   0  0  1  0  0  0  0  0  0  0  0  0
   18.2438   70.7020   -7.1463 C   0  0  1  0  0  0  0  0  0  0  0  0
   20.6313   70.8619   -6.3759 C   0  0  2  0  0  0  0  0  0  0  0  0
   17.8327   70.8679   -5.6771 C   0  0  1  0  0  0  0  0  0  0  0  0
   20.1039   71.0257   -4.9493 C   0  0  1  0  0  0  0  0  0  0  0  0
   19.4047   71.2258   -9.3751 H   0  0  0  0  0  0  0  0  0  0  0  0
   17.5657   71.2206   -8.9261 H   0  0  0  0  0  0  0  0  0  0  0  0
   22.1667   71.4788   -7.4476 H   0  0  0  0  0  0  0  0  0  0  0  0
   16.4588   68.9876   -6.2117 O   0  0  0  0  0  0  0  0  0  0  0  0
   16.5465   70.1107   -5.3542 C   0  0  0  0  0  0  0  0  0  0  0  0
   15.6450   68.4959   -6.0173 H   0  0  0  0  0  0  0  0  0  0  0  0
 25 28  1  0
 25 24  1  0
 25 26  1  1
 25 27  2  0
  1  4  1  0
  1 24  1  0
  1  2  1  1
  1  3  2  0
  6 11  1  0
  6 12  1  0
 29 36  1  0
 29 37  1  0
  9  7  1  1
  7 13  1  0
 10  8  1  1
  8 14  1  0
 37 28  1  6
  4  5  1  0
 33 30  1  6
 30 38  1  0
 34 31  1  6
 31 39  1  0
 35 32  1  1
 32 40  1  0
 41 42  1  0
 41 43  1  0
 15 19  2  0
 16 22  2  0
 12 17  1  6
 17 19  1  0
 17 20  1  0
 18 19  1  0
 18 22  1  0
 18 23  1  0
  9 10  1  0
  9 11  1  0
 10 12  1  0
 11  5  1  6
 33 34  1  0
 33 35  1  0
 34 36  1  0
 35 37  1  0
 36 42  1  6
 20 21  2  0
 21 22  1  0
M  CHG  2   2  -1  26  -1
M  END
>  <COMPND>  (164) 
    8629 

>  <AUTHOR>  (164) 
    GENERATED BY OPEN BABEL 3.1.1

>  <MASTER>  (164) 
        0    0    0    0    0    0    0    0   58    0   58    0

>  <minimizedAffinity>  (164) 
-7.54239

>  <CNNscore>  (164) 
0.5060416460

>  <CNNaffinity>  (164) 
4.1816787720

>  <CNN_VS>  (164) 
2.1161036491

>  <CNNaffinity_variance>  (164) 
0.0775214285

$$$$
165
     RDKit          3D

 43 45  0  0  0  0  0  0  0  0999 V2000
   22.7884   72.9791   -3.7687 P   0  0  2  0  0  0  0  0  0  0  0  0
   24.0298   72.6786   -4.7618 O   0  0  0  0  0  0  0  0  0  0  0  0
   22.6676   74.4054   -3.3189 O   0  0  0  0  0  0  0  0  0  0  0  0
   22.9591   71.8830   -2.5909 O   0  0  0  0  0  0  0  0  0  0  0  0
   23.9281   72.1178   -1.5840 C   0  0  0  0  0  0  0  0  0  0  0  0
   24.9693   71.1427    0.3496 O   0  0  0  0  0  0  0  0  0  0  0  0
   22.3425   69.7851    0.8478 O   0  0  0  0  0  0  0  0  0  0  0  0
   22.2777   71.8685    2.6061 O   0  0  0  0  0  0  0  0  0  0  0  0
   22.6002   71.0878    0.3263 C   0  0  1  0  0  0  0  0  0  0  0  0
   23.0517   72.0175    1.4333 C   0  0  2  0  0  0  0  0  0  0  0  0
   23.8456   71.0055   -0.5476 C   0  0  1  0  0  0  0  0  0  0  0  0
   24.4978   71.5950    1.6294 C   0  0  2  0  0  0  0  0  0  0  0  0
   21.5512   69.8125    1.4090 H   0  0  0  0  0  0  0  0  0  0  0  0
   21.3664   72.1501    2.4302 H   0  0  0  0  0  0  0  0  0  0  0  0
   27.1291   71.2871    2.6087 O   0  0  0  0  0  0  0  0  0  0  0  0
   27.5908   75.8175    3.3185 O   0  0  0  0  0  0  0  0  0  0  0  0
   25.3286   72.6772    2.0766 N   0  0  0  0  0  0  0  0  0  0  0  0
   27.3569   73.5432    2.9612 N   0  0  0  0  0  0  0  0  0  0  0  0
   26.6350   72.4151    2.5511 C   0  0  0  0  0  0  0  0  0  0  0  0
   24.8466   73.9811    2.0418 C   0  0  0  0  0  0  0  0  0  0  0  0
   25.5472   75.0458    2.4377 C   0  0  0  0  0  0  0  0  0  0  0  0
   26.9212   74.8587    2.9469 C   0  0  0  0  0  0  0  0  0  0  0  0
   28.2695   73.3848    3.2959 H   0  0  0  0  0  0  0  0  0  0  0  0
   21.5167   72.4254   -4.5988 O   0  0  0  0  0  0  0  0  0  0  0  0
   19.9292   72.5721   -4.3317 P   0  0  2  0  0  0  0  0  0  0  0  0
   19.6854   74.1695   -4.4119 O   0  0  0  0  0  0  0  0  0  0  0  0
   19.4588   71.9372   -3.0551 O   0  0  0  0  0  0  0  0  0  0  0  0
   19.2346   71.9862   -5.6656 O   0  0  0  0  0  0  0  0  0  0  0  0
   18.8361   69.6525   -5.5573 O   0  0  0  0  0  0  0  0  0  0  0  0
   18.1115   70.2598   -9.5769 O   0  0  0  0  0  0  0  0  0  0  0  0
   15.9142   69.7361   -7.8032 O   0  0  0  0  0  0  0  0  0  0  0  0
   20.2553   71.6944   -8.2633 O   0  0  0  0  0  0  0  0  0  0  0  0
   18.1119   70.5983   -8.1873 C   0  0  1  0  0  0  0  0  0  0  0  0
   17.2799   69.5547   -7.4393 C   0  0  1  0  0  0  0  0  0  0  0  0
   19.5513   70.6055   -7.6758 C   0  0  2  0  0  0  0  0  0  0  0  0
   17.4513   69.6945   -5.9207 C   0  0  1  0  0  0  0  0  0  0  0  0
   19.6080   70.6989   -6.1500 C   0  0  1  0  0  0  0  0  0  0  0  0
   17.2005   70.2539   -9.9080 H   0  0  0  0  0  0  0  0  0  0  0  0
   15.8198   69.6458   -8.7646 H   0  0  0  0  0  0  0  0  0  0  0  0
   20.2123   71.6236   -9.2292 H   0  0  0  0  0  0  0  0  0  0  0  0
   15.3686   68.8435   -5.1161 O   0  0  0  0  0  0  0  0  0  0  0  0
   16.7563   68.5669   -5.1606 C   0  0  0  0  0  0  0  0  0  0  0  0
   14.9133   68.1340   -4.6355 H   0  0  0  0  0  0  0  0  0  0  0  0
 25 28  1  0
 25 24  1  0
 25 26  1  1
 25 27  2  0
  1  4  1  0
  1 24  1  0
  1  2  1  6
  1  3  2  0
  6 11  1  0
  6 12  1  0
 29 36  1  0
 29 37  1  0
  9  7  1  1
  7 13  1  0
 10  8  1  1
  8 14  1  0
 37 28  1  6
  4  5  1  0
 33 30  1  6
 30 38  1  0
 34 31  1  1
 31 39  1  0
 35 32  1  6
 32 40  1  0
 41 42  1  0
 41 43  1  0
 15 19  2  0
 16 22  2  0
 12 17  1  6
 17 19  1  0
 17 20  1  0
 18 19  1  0
 18 22  1  0
 18 23  1  0
  9 10  1  0
  9 11  1  0
 10 12  1  0
 11  5  1  6
 33 34  1  0
 33 35  1  0
 34 36  1  0
 35 37  1  0
 36 42  1  1
 20 21  2  0
 21 22  1  0
M  CHG  2   2  -1  26  -1
M  END
>  <COMPND>  (165) 
    8629 

>  <AUTHOR>  (165) 
    GENERATED BY OPEN BABEL 3.1.1

>  <MASTER>  (165) 
        0    0    0    0    0    0    0    0   58    0   58    0

>  <minimizedAffinity>  (165) 
-7.36600

>  <CNNscore>  (165) 
0.5021730661

>  <CNNaffinity>  (165) 
4.2401003838

>  <CNN_VS>  (165) 
2.1292641163

>  <CNNaffinity_variance>  (165) 
0.2040386200

$$$$
166
     RDKit          3D

 43 45  0  0  0  0  0  0  0  0999 V2000
   19.7695   70.7099   -2.0060 P   0  0  2  0  0  0  0  0  0  0  0  0
   19.6907   72.1825   -1.3405 O   0  0  0  0  0  0  0  0  0  0  0  0
   18.4471   70.0242   -2.1861 O   0  0  0  0  0  0  0  0  0  0  0  0
   20.8481   69.9265   -1.0890 O   0  0  0  0  0  0  0  0  0  0  0  0
   21.2068   70.4879    0.1616 C   0  0  0  0  0  0  0  0  0  0  0  0
   23.4219   70.4985   -0.7695 O   0  0  0  0  0  0  0  0  0  0  0  0
   24.4096   70.4031    2.0600 O   0  0  0  0  0  0  0  0  0  0  0  0
   24.7124   73.0349    1.4131 O   0  0  0  0  0  0  0  0  0  0  0  0
   23.2732   71.0785    1.5234 C   0  0  1  0  0  0  0  0  0  0  0  0
   23.7084   72.3009    0.7424 C   0  0  2  0  0  0  0  0  0  0  0  0
   22.6772   70.1990    0.4313 C   0  0  1  0  0  0  0  0  0  0  0  0
   24.2025   71.6860   -0.5560 C   0  0  2  0  0  0  0  0  0  0  0  0
   24.8071   70.9455    2.7598 H   0  0  0  0  0  0  0  0  0  0  0  0
   24.3492   73.4059    2.2324 H   0  0  0  0  0  0  0  0  0  0  0  0
   25.2004   71.1765   -3.1487 O   0  0  0  0  0  0  0  0  0  0  0  0
   23.4856   75.1295   -4.7842 O   0  0  0  0  0  0  0  0  0  0  0  0
   24.0310   72.5648   -1.6783 N   0  0  0  0  0  0  0  0  0  0  0  0
   24.3456   73.1451   -3.9610 N   0  0  0  0  0  0  0  0  0  0  0  0
   24.5725   72.2161   -2.9375 C   0  0  0  0  0  0  0  0  0  0  0  0
   23.3323   73.7572   -1.5243 C   0  0  0  0  0  0  0  0  0  0  0  0
   23.1258   74.6330   -2.5100 C   0  0  0  0  0  0  0  0  0  0  0  0
   23.6587   74.3443   -3.8571 C   0  0  0  0  0  0  0  0  0  0  0  0
   24.7140   72.9235   -4.8470 H   0  0  0  0  0  0  0  0  0  0  0  0
   20.5827   70.9741   -3.3778 O   0  0  0  0  0  0  0  0  0  0  0  0
   20.4150   72.1176   -4.5079 P   0  0  2  0  0  0  0  0  0  0  0  0
   21.7803   71.9935   -5.3669 O   0  0  0  0  0  0  0  0  0  0  0  0
   20.1507   73.4902   -3.9600 O   0  0  0  0  0  0  0  0  0  0  0  0
   19.2633   71.5561   -5.4894 O   0  0  0  0  0  0  0  0  0  0  0  0
   18.2967   69.3926   -5.4505 O   0  0  0  0  0  0  0  0  0  0  0  0
   18.0021   70.1743   -9.4944 O   0  0  0  0  0  0  0  0  0  0  0  0
   15.6349   70.2028   -7.8686 O   0  0  0  0  0  0  0  0  0  0  0  0
   20.3447   71.0306   -8.0251 O   0  0  0  0  0  0  0  0  0  0  0  0
   17.9971   70.4972   -8.1012 C   0  0  1  0  0  0  0  0  0  0  0  0
   16.8878   69.6887   -7.4256 C   0  0  1  0  0  0  0  0  0  0  0  0
   19.3582   70.1471   -7.5028 C   0  0  2  0  0  0  0  0  0  0  0  0
   16.9909   69.7764   -5.8969 C   0  0  1  0  0  0  0  0  0  0  0  0
   19.3386   70.2182   -5.9748 C   0  0  1  0  0  0  0  0  0  0  0  0
   17.1408   70.3946   -9.8806 H   0  0  0  0  0  0  0  0  0  0  0  0
   15.5828   70.1421   -8.8355 H   0  0  0  0  0  0  0  0  0  0  0  0
   20.3473   70.9761   -8.9931 H   0  0  0  0  0  0  0  0  0  0  0  0
   16.2507   68.8772   -3.8106 O   0  0  0  0  0  0  0  0  0  0  0  0
   15.9927   68.8525   -5.2024 C   0  0  0  0  0  0  0  0  0  0  0  0
   15.6227   68.2939   -3.3556 H   0  0  0  0  0  0  0  0  0  0  0  0
 25 28  1  0
 25 24  1  0
 25 26  1  6
 25 27  2  0
  1  4  1  0
  1 24  1  0
  1  2  1  1
  1  3  2  0
  6 11  1  0
  6 12  1  0
 29 36  1  0
 29 37  1  0
  9  7  1  6
  7 13  1  0
 10  8  1  1
  8 14  1  0
 37 28  1  6
  4  5  1  0
 33 30  1  6
 30 38  1  0
 34 31  1  6
 31 39  1  0
 35 32  1  6
 32 40  1  0
 41 42  1  0
 41 43  1  0
 15 19  2  0
 16 22  2  0
 12 17  1  6
 17 19  1  0
 17 20  1  0
 18 19  1  0
 18 22  1  0
 18 23  1  0
  9 10  1  0
  9 11  1  0
 10 12  1  0
 11  5  1  6
 33 34  1  0
 33 35  1  0
 34 36  1  0
 35 37  1  0
 36 42  1  1
 20 21  2  0
 21 22  1  0
M  CHG  2   2  -1  26  -1
M  END
>  <COMPND>  (166) 
    8629 

>  <AUTHOR>  (166) 
    GENERATED BY OPEN BABEL 3.1.1

>  <MASTER>  (166) 
        0    0    0    0    0    0    0    0   58    0   58    0

>  <minimizedAffinity>  (166) 
-7.66763

>  <CNNscore>  (166) 
0.4851721823

>  <CNNaffinity>  (166) 
4.2775697708

>  <CNN_VS>  (166) 
2.0753579140

>  <CNNaffinity_variance>  (166) 
0.4106534123

$$$$
167
     RDKit          3D

 43 45  0  0  0  0  0  0  0  0999 V2000
   17.8638   69.9121   -2.1238 P   0  0  2  0  0  0  0  0  0  0  0  0
   17.2914   68.4597   -1.6991 O   0  0  0  0  0  0  0  0  0  0  0  0
   17.1347   71.0799   -1.5270 O   0  0  0  0  0  0  0  0  0  0  0  0
   17.8997   69.8579   -3.7405 O   0  0  0  0  0  0  0  0  0  0  0  0
   16.9125   69.0961   -4.4135 C   0  0  0  0  0  0  0  0  0  0  0  0
   16.9407   71.2051   -5.5646 O   0  0  0  0  0  0  0  0  0  0  0  0
   14.8887   70.0181   -7.4006 O   0  0  0  0  0  0  0  0  0  0  0  0
   17.1834   69.8083   -8.8590 O   0  0  0  0  0  0  0  0  0  0  0  0
   16.0066   69.3928   -6.7724 C   0  0  1  0  0  0  0  0  0  0  0  0
   17.2939   69.8136   -7.4503 C   0  0  2  0  0  0  0  0  0  0  0  0
   16.1650   70.0002   -5.3841 C   0  0  1  0  0  0  0  0  0  0  0  0
   17.5061   71.2080   -6.8857 C   0  0  2  0  0  0  0  0  0  0  0  0
   14.7675   69.6462   -8.2889 H   0  0  0  0  0  0  0  0  0  0  0  0
   17.0496   68.8993   -9.1696 H   0  0  0  0  0  0  0  0  0  0  0  0
   18.4716   73.8430   -6.5649 O   0  0  0  0  0  0  0  0  0  0  0  0
   22.8586   72.4304   -6.5606 O   0  0  0  0  0  0  0  0  0  0  0  0
   18.8958   71.5576   -6.7974 N   0  0  0  0  0  0  0  0  0  0  0  0
   20.6552   73.1375   -6.5628 N   0  0  0  0  0  0  0  0  0  0  0  0
   19.2749   72.9108   -6.6379 C   0  0  0  0  0  0  0  0  0  0  0  0
   19.8661   70.5639   -6.8687 C   0  0  0  0  0  0  0  0  0  0  0  0
   21.1783   70.7968   -6.7967 C   0  0  0  0  0  0  0  0  0  0  0  0
   21.6585   72.1838   -6.6299 C   0  0  0  0  0  0  0  0  0  0  0  0
   20.9428   74.0727   -6.4521 H   0  0  0  0  0  0  0  0  0  0  0  0
   19.4268   69.8184   -1.7223 O   0  0  0  0  0  0  0  0  0  0  0  0
   20.7078   70.6580   -2.2392 P   0  0  2  0  0  0  0  0  0  0  0  0
   20.1340   72.1648   -2.3738 O   0  0  0  0  0  0  0  0  0  0  0  0
   21.3318   70.1186   -3.4936 O   0  0  0  0  0  0  0  0  0  0  0  0
   21.7007   70.7121   -0.9679 O   0  0  0  0  0  0  0  0  0  0  0  0
   22.3086   72.4410    0.5348 O   0  0  0  0  0  0  0  0  0  0  0  0
   26.0126   70.6944    0.0055 O   0  0  0  0  0  0  0  0  0  0  0  0
   24.6226   70.3445    2.4941 O   0  0  0  0  0  0  0  0  0  0  0  0
   24.1950   70.9324   -2.2349 O   0  0  0  0  0  0  0  0  0  0  0  0
   24.5882   70.7157    0.1315 C   0  0  1  0  0  0  0  0  0  0  0  0
   24.2368   71.2936    1.5038 C   0  0  1  0  0  0  0  0  0  0  0  0
   24.0014   71.5807   -0.9824 C   0  0  2  0  0  0  0  0  0  0  0  0
   22.7360   71.5962    1.6097 C   0  0  1  0  0  0  0  0  0  0  0  0
   22.5151   71.8623   -0.7553 C   0  0  1  0  0  0  0  0  0  0  0  0
   26.3914   70.1464    0.7095 H   0  0  0  0  0  0  0  0  0  0  0  0
   25.5722   70.1618    2.4161 H   0  0  0  0  0  0  0  0  0  0  0  0
   25.1398   70.7599   -2.3669 H   0  0  0  0  0  0  0  0  0  0  0  0
   21.0222   72.0878    3.2004 O   0  0  0  0  0  0  0  0  0  0  0  0
   22.3885   72.3183    2.9097 C   0  0  0  0  0  0  0  0  0  0  0  0
   20.7869   72.5411    4.0255 H   0  0  0  0  0  0  0  0  0  0  0  0
 25 28  1  0
 25 24  1  0
 25 26  1  6
 25 27  2  0
  1  4  1  0
  1 24  1  0
  1  2  1  1
  1  3  2  0
  6 11  1  0
  6 12  1  0
 29 36  1  0
 29 37  1  0
  9  7  1  6
  7 13  1  0
 10  8  1  6
  8 14  1  0
 37 28  1  1
  4  5  1  0
 33 30  1  6
 30 38  1  0
 34 31  1  1
 31 39  1  0
 35 32  1  6
 32 40  1  0
 41 42  1  0
 41 43  1  0
 15 19  2  0
 16 22  2  0
 12 17  1  1
 17 19  1  0
 17 20  1  0
 18 19  1  0
 18 22  1  0
 18 23  1  0
  9 10  1  0
  9 11  1  0
 10 12  1  0
 11  5  1  1
 33 34  1  0
 33 35  1  0
 34 36  1  0
 35 37  1  0
 36 42  1  1
 20 21  2  0
 21 22  1  0
M  CHG  2   2  -1  26  -1
M  END
>  <COMPND>  (167) 
    8629 

>  <AUTHOR>  (167) 
    GENERATED BY OPEN BABEL 3.1.1

>  <MASTER>  (167) 
        0    0    0    0    0    0    0    0   58    0   58    0

>  <minimizedAffinity>  (167) 
-8.00795

>  <CNNscore>  (167) 
0.4807494879

>  <CNNaffinity>  (167) 
4.3092622757

>  <CNN_VS>  (167) 
2.0716755390

>  <CNNaffinity_variance>  (167) 
0.6369562149

$$$$
168
     RDKit          3D

 43 45  0  0  0  0  0  0  0  0999 V2000
   18.9811   72.4446   -1.3279 P   0  0  2  0  0  0  0  0  0  0  0  0
   19.7572   72.6974   -2.7248 O   0  0  0  0  0  0  0  0  0  0  0  0
   18.2257   73.6284   -0.7993 O   0  0  0  0  0  0  0  0  0  0  0  0
   20.1242   71.8473   -0.3510 O   0  0  0  0  0  0  0  0  0  0  0  0
   21.0343   72.7486    0.2550 C   0  0  0  0  0  0  0  0  0  0  0  0
   23.3841   73.1843    0.5046 O   0  0  0  0  0  0  0  0  0  0  0  0
   23.8149   70.9522   -1.4506 O   0  0  0  0  0  0  0  0  0  0  0  0
   24.3365   69.7545    0.9432 O   0  0  0  0  0  0  0  0  0  0  0  0
   22.8275   71.0783   -0.4287 C   0  0  1  0  0  0  0  0  0  0  0  0
   23.4495   70.8545    0.9339 C   0  0  2  0  0  0  0  0  0  0  0  0
   22.4148   72.5430   -0.3532 C   0  0  1  0  0  0  0  0  0  0  0  0
   24.1557   72.1771    1.1791 C   0  0  2  0  0  0  0  0  0  0  0  0
   24.0939   70.0250   -1.5178 H   0  0  0  0  0  0  0  0  0  0  0  0
   23.8397   68.9370    0.7829 H   0  0  0  0  0  0  0  0  0  0  0  0
   26.4510   73.2295    2.4447 O   0  0  0  0  0  0  0  0  0  0  0  0
   24.3402   73.3996    6.5382 O   0  0  0  0  0  0  0  0  0  0  0  0
   24.2337   72.5059    2.5745 N   0  0  0  0  0  0  0  0  0  0  0  0
   25.3981   73.3135    4.4819 N   0  0  0  0  0  0  0  0  0  0  0  0
   25.4337   73.0280    3.1111 C   0  0  0  0  0  0  0  0  0  0  0  0
   23.1282   72.3106    3.3953 C   0  0  0  0  0  0  0  0  0  0  0  0
   23.1110   72.5867    4.7009 C   0  0  0  0  0  0  0  0  0  0  0  0
   24.3244   73.1355    5.3400 C   0  0  0  0  0  0  0  0  0  0  0  0
   26.2229   73.6778    4.8778 H   0  0  0  0  0  0  0  0  0  0  0  0
   18.0659   71.1515   -1.6494 O   0  0  0  0  0  0  0  0  0  0  0  0
   18.4293   69.7422   -2.3528 P   0  0  2  0  0  0  0  0  0  0  0  0
   17.3482   68.7204   -1.7167 O   0  0  0  0  0  0  0  0  0  0  0  0
   19.8590   69.3183   -2.1789 O   0  0  0  0  0  0  0  0  0  0  0  0
   17.9667   69.9209   -3.8887 O   0  0  0  0  0  0  0  0  0  0  0  0
   17.3429   72.0243   -4.7849 O   0  0  0  0  0  0  0  0  0  0  0  0
   15.2633   69.5637   -7.3678 O   0  0  0  0  0  0  0  0  0  0  0  0
   17.6003   70.9477   -8.3011 O   0  0  0  0  0  0  0  0  0  0  0  0
   15.4468   68.8843   -4.5599 O   0  0  0  0  0  0  0  0  0  0  0  0
   16.3542   69.9426   -6.5241 C   0  0  1  0  0  0  0  0  0  0  0  0
   16.9515   71.2423   -7.0671 C   0  0  1  0  0  0  0  0  0  0  0  0
   15.8381   70.1419   -5.1002 C   0  0  2  0  0  0  0  0  0  0  0  0
   17.9477   71.8524   -6.0719 C   0  0  1  0  0  0  0  0  0  0  0  0
   16.8899   70.7994   -4.2050 C   0  0  1  0  0  0  0  0  0  0  0  0
   15.5844   69.4351   -8.2733 H   0  0  0  0  0  0  0  0  0  0  0  0
   16.9605   70.5626   -8.9204 H   0  0  0  0  0  0  0  0  0  0  0  0
   14.7805   68.4785   -5.1354 H   0  0  0  0  0  0  0  0  0  0  0  0
   17.4025   73.8525   -7.2599 O   0  0  0  0  0  0  0  0  0  0  0  0
   18.4365   73.2273   -6.5223 C   0  0  0  0  0  0  0  0  0  0  0  0
   17.6993   74.7288   -7.5528 H   0  0  0  0  0  0  0  0  0  0  0  0
 25 28  1  0
 25 24  1  0
 25 26  1  1
 25 27  2  0
  1  4  1  0
  1 24  1  0
  1  2  1  6
  1  3  2  0
  6 11  1  0
  6 12  1  0
 29 36  1  0
 29 37  1  0
  9  7  1  6
  7 13  1  0
 10  8  1  6
  8 14  1  0
 37 28  1  6
  4  5  1  0
 33 30  1  6
 30 38  1  0
 34 31  1  6
 31 39  1  0
 35 32  1  1
 32 40  1  0
 41 42  1  0
 41 43  1  0
 15 19  2  0
 16 22  2  0
 12 17  1  1
 17 19  1  0
 17 20  1  0
 18 19  1  0
 18 22  1  0
 18 23  1  0
  9 10  1  0
  9 11  1  0
 10 12  1  0
 11  5  1  1
 33 34  1  0
 33 35  1  0
 34 36  1  0
 35 37  1  0
 36 42  1  6
 20 21  2  0
 21 22  1  0
M  CHG  2   2  -1  26  -1
M  END
>  <COMPND>  (168) 
    8629 

>  <AUTHOR>  (168) 
    GENERATED BY OPEN BABEL 3.1.1

>  <MASTER>  (168) 
        0    0    0    0    0    0    0    0   58    0   58    0

>  <minimizedAffinity>  (168) 
-7.31792

>  <CNNscore>  (168) 
0.4624211788

>  <CNNaffinity>  (168) 
4.1451458931

>  <CNN_VS>  (168) 
1.9168032408

>  <CNNaffinity_variance>  (168) 
0.2623367608

$$$$
169
     RDKit          3D

 43 45  0  0  0  0  0  0  0  0999 V2000
   18.3766   70.0702   -2.2961 P   0  0  2  0  0  0  0  0  0  0  0  0
   17.7350   68.7263   -1.6638 O   0  0  0  0  0  0  0  0  0  0  0  0
   17.8619   71.3533   -1.7129 O   0  0  0  0  0  0  0  0  0  0  0  0
   18.1659   69.8884   -3.8900 O   0  0  0  0  0  0  0  0  0  0  0  0
   17.0582   69.1300   -4.3434 C   0  0  0  0  0  0  0  0  0  0  0  0
   16.9586   71.2050   -5.5509 O   0  0  0  0  0  0  0  0  0  0  0  0
   14.8806   69.8906   -7.2671 O   0  0  0  0  0  0  0  0  0  0  0  0
   17.1205   69.7252   -8.8138 O   0  0  0  0  0  0  0  0  0  0  0  0
   16.0464   69.3256   -6.6695 C   0  0  1  0  0  0  0  0  0  0  0  0
   17.2879   69.7746   -7.4116 C   0  0  2  0  0  0  0  0  0  0  0  0
   16.2376   69.9776   -5.3059 C   0  0  1  0  0  0  0  0  0  0  0  0
   17.4692   71.1914   -6.8940 C   0  0  2  0  0  0  0  0  0  0  0  0
   14.7377   69.4894   -8.1392 H   0  0  0  0  0  0  0  0  0  0  0  0
   17.0091   68.8033   -9.0940 H   0  0  0  0  0  0  0  0  0  0  0  0
   18.3486   73.8472   -6.5050 O   0  0  0  0  0  0  0  0  0  0  0  0
   22.7794   72.6222   -6.8348 O   0  0  0  0  0  0  0  0  0  0  0  0
   18.8469   71.5948   -6.8732 N   0  0  0  0  0  0  0  0  0  0  0  0
   20.5541   73.2351   -6.6693 N   0  0  0  0  0  0  0  0  0  0  0  0
   19.1819   72.9541   -6.6716 C   0  0  0  0  0  0  0  0  0  0  0  0
   19.8492   70.6474   -7.0512 C   0  0  0  0  0  0  0  0  0  0  0  0
   21.1532   70.9318   -7.0477 C   0  0  0  0  0  0  0  0  0  0  0  0
   21.5880   72.3286   -6.8432 C   0  0  0  0  0  0  0  0  0  0  0  0
   20.8112   74.1756   -6.5310 H   0  0  0  0  0  0  0  0  0  0  0  0
   19.9653   69.8364   -2.1106 O   0  0  0  0  0  0  0  0  0  0  0  0
   21.2276   70.7702   -2.4949 P   0  0  2  0  0  0  0  0  0  0  0  0
   20.6427   71.7216   -3.6654 O   0  0  0  0  0  0  0  0  0  0  0  0
   22.4635   70.0078   -2.8762 O   0  0  0  0  0  0  0  0  0  0  0  0
   21.4115   71.7509   -1.2263 O   0  0  0  0  0  0  0  0  0  0  0  0
   22.1853   70.7108    0.7577 O   0  0  0  0  0  0  0  0  0  0  0  0
   20.8635   74.2810    2.3568 O   0  0  0  0  0  0  0  0  0  0  0  0
   23.6834   73.7787    2.1478 O   0  0  0  0  0  0  0  0  0  0  0  0
   19.3688   73.0112    0.2277 O   0  0  0  0  0  0  0  0  0  0  0  0
   21.4502   73.4364    1.3628 C   0  0  1  0  0  0  0  0  0  0  0  0
   22.6895   72.7737    1.9674 C   0  0  1  0  0  0  0  0  0  0  0  0
   20.4297   72.3820    0.9383 C   0  0  2  0  0  0  0  0  0  0  0  0
   23.2187   71.6557    1.0591 C   0  0  1  0  0  0  0  0  0  0  0  0
   21.0697   71.2905    0.0785 C   0  0  1  0  0  0  0  0  0  0  0  0
   21.5061   74.9531    2.6303 H   0  0  0  0  0  0  0  0  0  0  0  0
   23.3365   74.4788    2.7228 H   0  0  0  0  0  0  0  0  0  0  0  0
   18.9718   73.6998    0.7827 H   0  0  0  0  0  0  0  0  0  0  0  0
   25.5861   71.4556    1.3131 O   0  0  0  0  0  0  0  0  0  0  0  0
   24.3576   70.8774    1.7142 C   0  0  0  0  0  0  0  0  0  0  0  0
   26.3200   70.9706    1.7227 H   0  0  0  0  0  0  0  0  0  0  0  0
 25 28  1  0
 25 24  1  0
 25 26  1  6
 25 27  2  0
  1  4  1  0
  1 24  1  0
  1  2  1  1
  1  3  2  0
  6 11  1  0
  6 12  1  0
 29 36  1  0
 29 37  1  0
  9  7  1  6
  7 13  1  0
 10  8  1  6
  8 14  1  0
 37 28  1  6
  4  5  1  0
 33 30  1  1
 30 38  1  0
 34 31  1  6
 31 39  1  0
 35 32  1  6
 32 40  1  0
 41 42  1  0
 41 43  1  0
 15 19  2  0
 16 22  2  0
 12 17  1  1
 17 19  1  0
 17 20  1  0
 18 19  1  0
 18 22  1  0
 18 23  1  0
  9 10  1  0
  9 11  1  0
 10 12  1  0
 11  5  1  1
 33 34  1  0
 33 35  1  0
 34 36  1  0
 35 37  1  0
 36 42  1  1
 20 21  2  0
 21 22  1  0
M  CHG  2   2  -1  26  -1
M  END
>  <COMPND>  (169) 
    8629 

>  <AUTHOR>  (169) 
    GENERATED BY OPEN BABEL 3.1.1

>  <MASTER>  (169) 
        0    0    0    0    0    0    0    0   58    0   58    0

>  <minimizedAffinity>  (169) 
-6.84350

>  <CNNscore>  (169) 
0.4508956969

>  <CNNaffinity>  (169) 
4.2590851784

>  <CNN_VS>  (169) 
1.9204031229

>  <CNNaffinity_variance>  (169) 
0.3015243113

$$$$
170
     RDKit          3D

 43 45  0  0  0  0  0  0  0  0999 V2000
   23.5356   74.0020   -3.6176 P   0  0  2  0  0  0  0  0  0  0  0  0
   24.1609   75.1970   -2.7242 O   0  0  0  0  0  0  0  0  0  0  0  0
   23.3880   74.3131   -5.0780 O   0  0  0  0  0  0  0  0  0  0  0  0
   22.1713   73.6097   -2.8414 O   0  0  0  0  0  0  0  0  0  0  0  0
   20.9565   73.6029   -3.5708 C   0  0  0  0  0  0  0  0  0  0  0  0
   18.6742   72.8791   -3.3676 O   0  0  0  0  0  0  0  0  0  0  0  0
   19.2417   72.5293   -0.4442 O   0  0  0  0  0  0  0  0  0  0  0  0
   19.3971   69.9761   -1.3895 O   0  0  0  0  0  0  0  0  0  0  0  0
   20.0962   72.2983   -1.5631 C   0  0  1  0  0  0  0  0  0  0  0  0
   19.6873   71.0308   -2.2841 C   0  0  2  0  0  0  0  0  0  0  0  0
   19.8011   73.3677   -2.6075 C   0  0  1  0  0  0  0  0  0  0  0  0
   18.4658   71.4907   -3.0616 C   0  0  2  0  0  0  0  0  0  0  0  0
   19.4121   71.8588    0.2364 H   0  0  0  0  0  0  0  0  0  0  0  0
   20.2055   69.7194   -0.9191 H   0  0  0  0  0  0  0  0  0  0  0  0
   17.0819   69.0382   -3.2801 O   0  0  0  0  0  0  0  0  0  0  0  0
   17.8612   68.7924   -7.8159 O   0  0  0  0  0  0  0  0  0  0  0  0
   18.2915   70.7641   -4.2876 N   0  0  0  0  0  0  0  0  0  0  0  0
   17.4709   68.9179   -5.5384 N   0  0  0  0  0  0  0  0  0  0  0  0
   17.5808   69.5412   -4.2889 C   0  0  0  0  0  0  0  0  0  0  0  0
   18.8220   71.2650   -5.4715 C   0  0  0  0  0  0  0  0  0  0  0  0
   18.7095   70.6577   -6.6546 C   0  0  0  0  0  0  0  0  0  0  0  0
   17.9817   69.3753   -6.7428 C   0  0  0  0  0  0  0  0  0  0  0  0
   16.9802   68.0644   -5.5636 H   0  0  0  0  0  0  0  0  0  0  0  0
   24.5110   72.7551   -3.2906 O   0  0  0  0  0  0  0  0  0  0  0  0
   24.2498   71.3919   -2.4622 P   0  0  2  0  0  0  0  0  0  0  0  0
   25.6462   70.5897   -2.6180 O   0  0  0  0  0  0  0  0  0  0  0  0
   23.0405   70.6225   -2.9089 O   0  0  0  0  0  0  0  0  0  0  0  0
   24.2154   71.8536   -0.9161 O   0  0  0  0  0  0  0  0  0  0  0  0
   25.5355   71.2543    0.9587 O   0  0  0  0  0  0  0  0  0  0  0  0
   21.8328   71.4055    2.7802 O   0  0  0  0  0  0  0  0  0  0  0  0
   23.7574   73.4710    3.3067 O   0  0  0  0  0  0  0  0  0  0  0  0
   22.0809   70.3412    0.0997 O   0  0  0  0  0  0  0  0  0  0  0  0
   22.8460   71.8045    1.8531 C   0  0  1  0  0  0  0  0  0  0  0  0
   24.0756   72.2482    2.6482 C   0  0  1  0  0  0  0  0  0  0  0  0
   23.1885   70.6222    0.9486 C   0  0  2  0  0  0  0  0  0  0  0  0
   25.2908   72.4362    1.7300 C   0  0  1  0  0  0  0  0  0  0  0  0
   24.4410   70.8942    0.1134 C   0  0  1  0  0  0  0  0  0  0  0  0
   21.6103   72.1518    3.3572 H   0  0  0  0  0  0  0  0  0  0  0  0
   22.9882   73.3388    3.8829 H   0  0  0  0  0  0  0  0  0  0  0  0
   21.2945   70.1705    0.6403 H   0  0  0  0  0  0  0  0  0  0  0  0
   27.3128   71.5270    2.6208 O   0  0  0  0  0  0  0  0  0  0  0  0
   26.5653   72.7250    2.5201 C   0  0  0  0  0  0  0  0  0  0  0  0
   28.1271   71.6957    3.1210 H   0  0  0  0  0  0  0  0  0  0  0  0
 25 28  1  0
 25 24  1  0
 25 26  1  1
 25 27  2  0
  1  4  1  0
  1 24  1  0
  1  2  1  1
  1  3  2  0
  6 11  1  0
  6 12  1  0
 29 36  1  0
 29 37  1  0
  9  7  1  1
  7 13  1  0
 10  8  1  1
  8 14  1  0
 37 28  1  6
  4  5  1  0
 33 30  1  1
 30 38  1  0
 34 31  1  6
 31 39  1  0
 35 32  1  6
 32 40  1  0
 41 42  1  0
 41 43  1  0
 15 19  2  0
 16 22  2  0
 12 17  1  6
 17 19  1  0
 17 20  1  0
 18 19  1  0
 18 22  1  0
 18 23  1  0
  9 10  1  0
  9 11  1  0
 10 12  1  0
 11  5  1  6
 33 34  1  0
 33 35  1  0
 34 36  1  0
 35 37  1  0
 36 42  1  1
 20 21  2  0
 21 22  1  0
M  CHG  2   2  -1  26  -1
M  END
>  <COMPND>  (170) 
    8629 

>  <AUTHOR>  (170) 
    GENERATED BY OPEN BABEL 3.1.1

>  <MASTER>  (170) 
        0    0    0    0    0    0    0    0   58    0   58    0

>  <minimizedAffinity>  (170) 
-6.65320

>  <CNNscore>  (170) 
0.4471302629

>  <CNNaffinity>  (170) 
4.2720708847

>  <CNN_VS>  (170) 
1.9101722240

>  <CNNaffinity_variance>  (170) 
0.1169204116

$$$$
171
     RDKit          3D

 43 45  0  0  0  0  0  0  0  0999 V2000
   20.4663   70.4044   -1.4452 P   0  0  2  0  0  0  0  0  0  0  0  0
   20.8752   69.7813   -0.0093 O   0  0  0  0  0  0  0  0  0  0  0  0
   21.0779   69.7183   -2.6312 O   0  0  0  0  0  0  0  0  0  0  0  0
   20.8020   71.9800   -1.2946 O   0  0  0  0  0  0  0  0  0  0  0  0
   21.7843   72.3751   -0.3529 C   0  0  0  0  0  0  0  0  0  0  0  0
   23.9829   73.3376   -0.2387 O   0  0  0  0  0  0  0  0  0  0  0  0
   24.7587   71.3503   -2.3457 O   0  0  0  0  0  0  0  0  0  0  0  0
   25.7310   70.2107   -0.0669 O   0  0  0  0  0  0  0  0  0  0  0  0
   23.8535   71.2000   -1.2533 C   0  0  1  0  0  0  0  0  0  0  0  0
   24.6168   71.0722    0.0484 C   0  0  2  0  0  0  0  0  0  0  0  0
   23.1221   72.5232   -1.0645 C   0  0  1  0  0  0  0  0  0  0  0  0
   25.0169   72.5121    0.3218 C   0  0  2  0  0  0  0  0  0  0  0  0
   25.2373   70.5176   -2.4857 H   0  0  0  0  0  0  0  0  0  0  0  0
   25.4246   69.3070   -0.2405 H   0  0  0  0  0  0  0  0  0  0  0  0
   27.1908   71.7175    1.9407 O   0  0  0  0  0  0  0  0  0  0  0  0
   25.3356   73.6424    5.6949 O   0  0  0  0  0  0  0  0  0  0  0  0
   25.1281   72.7926    1.7255 N   0  0  0  0  0  0  0  0  0  0  0  0
   26.2654   72.6768    3.8086 N   0  0  0  0  0  0  0  0  0  0  0  0
   26.2604   72.3480    2.4470 C   0  0  0  0  0  0  0  0  0  0  0  0
   24.1216   73.5015    2.3723 C   0  0  0  0  0  0  0  0  0  0  0  0
   24.1409   73.8058    3.6716 C   0  0  0  0  0  0  0  0  0  0  0  0
   25.2885   73.3781    4.4975 C   0  0  0  0  0  0  0  0  0  0  0  0
   27.0442   72.3770    4.3315 H   0  0  0  0  0  0  0  0  0  0  0  0
   18.8506   70.3720   -1.4086 O   0  0  0  0  0  0  0  0  0  0  0  0
   17.7722   69.9232   -2.5261 P   0  0  2  0  0  0  0  0  0  0  0  0
   16.3699   70.4631   -1.9264 O   0  0  0  0  0  0  0  0  0  0  0  0
   17.7869   68.4554   -2.8409 O   0  0  0  0  0  0  0  0  0  0  0  0
   18.0709   70.8814   -3.7901 O   0  0  0  0  0  0  0  0  0  0  0  0
   17.1648   70.0842   -5.8297 O   0  0  0  0  0  0  0  0  0  0  0  0
   19.6512   73.0262   -7.3175 O   0  0  0  0  0  0  0  0  0  0  0  0
   16.8079   73.4302   -7.3349 O   0  0  0  0  0  0  0  0  0  0  0  0
   20.5091   71.4082   -5.0757 O   0  0  0  0  0  0  0  0  0  0  0  0
   18.7567   72.4306   -6.3738 C   0  0  1  0  0  0  0  0  0  0  0  0
   17.4223   72.1710   -7.0757 C   0  0  1  0  0  0  0  0  0  0  0  0
   19.3623   71.1222   -5.8690 C   0  0  2  0  0  0  0  0  0  0  0  0
   16.5035   71.2957   -6.2127 C   0  0  1  0  0  0  0  0  0  0  0  0
   18.3505   70.3054   -5.0634 C   0  0  1  0  0  0  0  0  0  0  0  0
   19.2729   73.8577   -7.6415 H   0  0  0  0  0  0  0  0  0  0  0  0
   17.3985   73.9734   -7.8802 H   0  0  0  0  0  0  0  0  0  0  0  0
   21.1420   71.9253   -5.5971 H   0  0  0  0  0  0  0  0  0  0  0  0
   15.5300   69.7898   -7.7918 O   0  0  0  0  0  0  0  0  0  0  0  0
   15.2321   70.8938   -6.9570 C   0  0  0  0  0  0  0  0  0  0  0  0
   14.7299   69.5228   -8.2716 H   0  0  0  0  0  0  0  0  0  0  0  0
 25 28  1  0
 25 24  1  0
 25 26  1  1
 25 27  2  0
  1  4  1  0
  1 24  1  0
  1  2  1  1
  1  3  2  0
  6 11  1  0
  6 12  1  0
 29 36  1  0
 29 37  1  0
  9  7  1  6
  7 13  1  0
 10  8  1  6
  8 14  1  0
 37 28  1  1
  4  5  1  0
 33 30  1  6
 30 38  1  0
 34 31  1  1
 31 39  1  0
 35 32  1  1
 32 40  1  0
 41 42  1  0
 41 43  1  0
 15 19  2  0
 16 22  2  0
 12 17  1  1
 17 19  1  0
 17 20  1  0
 18 19  1  0
 18 22  1  0
 18 23  1  0
  9 10  1  0
  9 11  1  0
 10 12  1  0
 11  5  1  1
 33 34  1  0
 33 35  1  0
 34 36  1  0
 35 37  1  0
 36 42  1  6
 20 21  2  0
 21 22  1  0
M  CHG  2   2  -1  26  -1
M  END
>  <COMPND>  (171) 
    8629 

>  <AUTHOR>  (171) 
    GENERATED BY OPEN BABEL 3.1.1

>  <MASTER>  (171) 
        0    0    0    0    0    0    0    0   58    0   58    0

>  <minimizedAffinity>  (171) 
-7.35201

>  <CNNscore>  (171) 
0.4459712505

>  <CNNaffinity>  (171) 
4.1590123177

>  <CNN_VS>  (171) 
1.8547998667

>  <CNNaffinity_variance>  (171) 
0.0911905840

$$$$
172
     RDKit          3D

 43 45  0  0  0  0  0  0  0  0999 V2000
   22.8989   72.3337   -3.5951 P   0  0  2  0  0  0  0  0  0  0  0  0
   23.8027   72.3711   -4.9364 O   0  0  0  0  0  0  0  0  0  0  0  0
   22.6031   73.6756   -2.9925 O   0  0  0  0  0  0  0  0  0  0  0  0
   23.6731   71.2872   -2.6341 O   0  0  0  0  0  0  0  0  0  0  0  0
   23.9716   71.6820   -1.3064 C   0  0  0  0  0  0  0  0  0  0  0  0
   24.4433   70.5810    0.7767 O   0  0  0  0  0  0  0  0  0  0  0  0
   21.6440   69.5163    0.6328 O   0  0  0  0  0  0  0  0  0  0  0  0
   21.4054   71.5784    2.4013 O   0  0  0  0  0  0  0  0  0  0  0  0
   22.1478   70.7873    0.2254 C   0  0  1  0  0  0  0  0  0  0  0  0
   22.4343   71.6518    1.4355 C   0  0  2  0  0  0  0  0  0  0  0  0
   23.5419   70.5763   -0.3519 C   0  0  1  0  0  0  0  0  0  0  0  0
   23.7467   71.0710    1.9340 C   0  0  2  0  0  0  0  0  0  0  0  0
   20.7542   69.6255    1.0047 H   0  0  0  0  0  0  0  0  0  0  0  0
   20.5917   71.9601    2.0367 H   0  0  0  0  0  0  0  0  0  0  0  0
   23.3864   71.9213    4.6033 O   0  0  0  0  0  0  0  0  0  0  0  0
   26.9455   74.8382    4.3476 O   0  0  0  0  0  0  0  0  0  0  0  0
   24.5650   72.0512    2.5906 N   0  0  0  0  0  0  0  0  0  0  0  0
   25.1589   73.3728    4.4739 N   0  0  0  0  0  0  0  0  0  0  0  0
   24.2992   72.4083    3.9331 C   0  0  0  0  0  0  0  0  0  0  0  0
   25.6177   72.6470    1.9045 C   0  0  0  0  0  0  0  0  0  0  0  0
   26.4275   73.5661    2.4342 C   0  0  0  0  0  0  0  0  0  0  0  0
   26.2180   73.9951    3.8321 C   0  0  0  0  0  0  0  0  0  0  0  0
   24.9926   73.6376    5.4077 H   0  0  0  0  0  0  0  0  0  0  0  0
   21.5929   71.5023   -4.0600 O   0  0  0  0  0  0  0  0  0  0  0  0
   20.3260   70.9571   -3.2170 P   0  0  2  0  0  0  0  0  0  0  0  0
   19.8470   72.2585   -2.3836 O   0  0  0  0  0  0  0  0  0  0  0  0
   20.6225   69.7538   -2.3696 O   0  0  0  0  0  0  0  0  0  0  0  0
   19.1689   70.7303   -4.3191 O   0  0  0  0  0  0  0  0  0  0  0  0
   17.0898   71.7898   -4.7327 O   0  0  0  0  0  0  0  0  0  0  0  0
   15.9620   67.8641   -5.3390 O   0  0  0  0  0  0  0  0  0  0  0  0
   16.2090   69.6320   -7.5888 O   0  0  0  0  0  0  0  0  0  0  0  0
   17.8287   68.5202   -3.2262 O   0  0  0  0  0  0  0  0  0  0  0  0
   16.8485   68.9857   -5.3765 C   0  0  1  0  0  0  0  0  0  0  0  0
   16.2056   70.0767   -6.2351 C   0  0  1  0  0  0  0  0  0  0  0  0
   17.0786   69.4879   -3.9524 C   0  0  2  0  0  0  0  0  0  0  0  0
   16.9665   71.4032   -6.1064 C   0  0  1  0  0  0  0  0  0  0  0  0
   17.7996   70.8370   -3.9388 C   0  0  1  0  0  0  0  0  0  0  0  0
   15.8121   67.5400   -6.2402 H   0  0  0  0  0  0  0  0  0  0  0  0
   15.7258   68.7935   -7.6562 H   0  0  0  0  0  0  0  0  0  0  0  0
   17.3616   67.6709   -3.2419 H   0  0  0  0  0  0  0  0  0  0  0  0
   16.4221   72.3683   -8.2232 O   0  0  0  0  0  0  0  0  0  0  0  0
   16.2532   72.5441   -6.8286 C   0  0  0  0  0  0  0  0  0  0  0  0
   15.9730   73.0871   -8.6958 H   0  0  0  0  0  0  0  0  0  0  0  0
 25 28  1  0
 25 24  1  0
 25 26  1  1
 25 27  2  0
  1  4  1  0
  1 24  1  0
  1  2  1  6
  1  3  2  0
  6 11  1  0
  6 12  1  0
 29 36  1  0
 29 37  1  0
  9  7  1  1
  7 13  1  0
 10  8  1  1
  8 14  1  0
 37 28  1  6
  4  5  1  0
 33 30  1  1
 30 38  1  0
 34 31  1  6
 31 39  1  0
 35 32  1  1
 32 40  1  0
 41 42  1  0
 41 43  1  0
 15 19  2  0
 16 22  2  0
 12 17  1  6
 17 19  1  0
 17 20  1  0
 18 19  1  0
 18 22  1  0
 18 23  1  0
  9 10  1  0
  9 11  1  0
 10 12  1  0
 11  5  1  6
 33 34  1  0
 33 35  1  0
 34 36  1  0
 35 37  1  0
 36 42  1  6
 20 21  2  0
 21 22  1  0
M  CHG  2   2  -1  26  -1
M  END
>  <COMPND>  (172) 
    8629 

>  <AUTHOR>  (172) 
    GENERATED BY OPEN BABEL 3.1.1

>  <MASTER>  (172) 
        0    0    0    0    0    0    0    0   58    0   58    0

>  <minimizedAffinity>  (172) 
-7.82185

>  <CNNscore>  (172) 
0.4261792302

>  <CNNaffinity>  (172) 
4.0760922432

>  <CNN_VS>  (172) 
1.7371459007

>  <CNNaffinity_variance>  (172) 
0.1619764566

$$$$
173
     RDKit          3D

 43 45  0  0  0  0  0  0  0  0999 V2000
   20.3956   70.5303   -1.0485 P   0  0  2  0  0  0  0  0  0  0  0  0
   19.3870   71.6934   -0.5513 O   0  0  0  0  0  0  0  0  0  0  0  0
   21.0365   69.7346    0.0504 O   0  0  0  0  0  0  0  0  0  0  0  0
   21.4129   71.2982   -2.0451 O   0  0  0  0  0  0  0  0  0  0  0  0
   21.9540   72.5412   -1.6327 C   0  0  0  0  0  0  0  0  0  0  0  0
   24.1149   73.3664   -0.9821 O   0  0  0  0  0  0  0  0  0  0  0  0
   25.2552   71.2573   -2.7826 O   0  0  0  0  0  0  0  0  0  0  0  0
   25.5380   70.1438   -0.3094 O   0  0  0  0  0  0  0  0  0  0  0  0
   24.0953   71.2051   -1.9537 C   0  0  1  0  0  0  0  0  0  0  0  0
   24.4944   71.0776   -0.4983 C   0  0  2  0  0  0  0  0  0  0  0  0
   23.4352   72.5780   -1.9834 C   0  0  1  0  0  0  0  0  0  0  0  0
   24.9130   72.4985   -0.1608 C   0  0  2  0  0  0  0  0  0  0  0  0
   25.6937   70.3915   -2.7798 H   0  0  0  0  0  0  0  0  0  0  0  0
   25.2223   69.2554   -0.5373 H   0  0  0  0  0  0  0  0  0  0  0  0
   26.6191   71.7407    1.9589 O   0  0  0  0  0  0  0  0  0  0  0  0
   23.9403   73.7989    5.0939 O   0  0  0  0  0  0  0  0  0  0  0  0
   24.6857   72.8232    1.2192 N   0  0  0  0  0  0  0  0  0  0  0  0
   25.2840   72.7663    3.5181 N   0  0  0  0  0  0  0  0  0  0  0  0
   25.6033   72.3939    2.2061 C   0  0  0  0  0  0  0  0  0  0  0  0
   23.5634   73.5599    1.5820 C   0  0  0  0  0  0  0  0  0  0  0  0
   23.2726   73.9057    2.8378 C   0  0  0  0  0  0  0  0  0  0  0  0
   24.1801   73.4965    3.9291 C   0  0  0  0  0  0  0  0  0  0  0  0
   25.9087   72.4778    4.2226 H   0  0  0  0  0  0  0  0  0  0  0  0
   19.4803   69.6638   -2.0607 O   0  0  0  0  0  0  0  0  0  0  0  0
   17.8817   69.6509   -2.2993 P   0  0  2  0  0  0  0  0  0  0  0  0
   17.4409   71.1659   -1.9413 O   0  0  0  0  0  0  0  0  0  0  0  0
   17.1520   68.5937   -1.5224 O   0  0  0  0  0  0  0  0  0  0  0  0
   17.7085   69.5436   -3.9004 O   0  0  0  0  0  0  0  0  0  0  0  0
   18.7308   71.0272   -5.4401 O   0  0  0  0  0  0  0  0  0  0  0  0
   15.4523   69.9028   -7.6847 O   0  0  0  0  0  0  0  0  0  0  0  0
   18.0574   68.9202   -8.3890 O   0  0  0  0  0  0  0  0  0  0  0  0
   15.1768   70.3158   -4.8328 O   0  0  0  0  0  0  0  0  0  0  0  0
   16.5137   69.7161   -6.7445 C   0  0  1  0  0  0  0  0  0  0  0  0
   17.8401   69.9788   -7.4603 C   0  0  1  0  0  0  0  0  0  0  0  0
   16.3279   70.6897   -5.5822 C   0  0  2  0  0  0  0  0  0  0  0  0
   19.0022   70.0600   -6.4612 C   0  0  1  0  0  0  0  0  0  0  0  0
   17.5601   70.7297   -4.6765 C   0  0  1  0  0  0  0  0  0  0  0  0
   15.5640   69.2872   -8.4250 H   0  0  0  0  0  0  0  0  0  0  0  0
   17.3164   68.8795   -9.0139 H   0  0  0  0  0  0  0  0  0  0  0  0
   14.4036   70.2943   -5.4173 H   0  0  0  0  0  0  0  0  0  0  0  0
   20.9642   69.3129   -7.6018 O   0  0  0  0  0  0  0  0  0  0  0  0
   20.3076   70.4770   -7.1349 C   0  0  0  0  0  0  0  0  0  0  0  0
   21.7967   69.5629   -8.0333 H   0  0  0  0  0  0  0  0  0  0  0  0
 25 28  1  0
 25 24  1  0
 25 26  1  1
 25 27  2  0
  1  4  1  0
  1 24  1  0
  1  2  1  1
  1  3  2  0
  6 11  1  0
  6 12  1  0
 29 36  1  0
 29 37  1  0
  9  7  1  6
  7 13  1  0
 10  8  1  6
  8 14  1  0
 37 28  1  6
  4  5  1  0
 33 30  1  6
 30 38  1  0
 34 31  1  6
 31 39  1  0
 35 32  1  1
 32 40  1  0
 41 42  1  0
 41 43  1  0
 15 19  2  0
 16 22  2  0
 12 17  1  1
 17 19  1  0
 17 20  1  0
 18 19  1  0
 18 22  1  0
 18 23  1  0
  9 10  1  0
  9 11  1  0
 10 12  1  0
 11  5  1  1
 33 34  1  0
 33 35  1  0
 34 36  1  0
 35 37  1  0
 36 42  1  6
 20 21  2  0
 21 22  1  0
M  CHG  2   2  -1  26  -1
M  END
>  <COMPND>  (173) 
    8629 

>  <AUTHOR>  (173) 
    GENERATED BY OPEN BABEL 3.1.1

>  <MASTER>  (173) 
        0    0    0    0    0    0    0    0   58    0   58    0

>  <minimizedAffinity>  (173) 
-8.05192

>  <CNNscore>  (173) 
0.4256497025

>  <CNNaffinity>  (173) 
4.1219940186

>  <CNN_VS>  (173) 
1.7545255423

>  <CNNaffinity_variance>  (173) 
0.2814775407

$$$$
174
     RDKit          3D

 43 45  0  0  0  0  0  0  0  0999 V2000
   16.7370   69.7729   -2.6219 P   0  0  2  0  0  0  0  0  0  0  0  0
   17.0580   68.8282   -1.3483 O   0  0  0  0  0  0  0  0  0  0  0  0
   15.5164   70.6341   -2.4806 O   0  0  0  0  0  0  0  0  0  0  0  0
   16.7328   68.7483   -3.8742 O   0  0  0  0  0  0  0  0  0  0  0  0
   17.5275   69.0598   -5.0052 C   0  0  0  0  0  0  0  0  0  0  0  0
   17.4459   71.2917   -5.8916 O   0  0  0  0  0  0  0  0  0  0  0  0
   15.5835   70.1971   -7.9710 O   0  0  0  0  0  0  0  0  0  0  0  0
   17.9549   70.3348   -9.3104 O   0  0  0  0  0  0  0  0  0  0  0  0
   16.7154   69.5807   -7.3595 C   0  0  1  0  0  0  0  0  0  0  0  0
   17.9969   70.1735   -7.9072 C   0  0  2  0  0  0  0  0  0  0  0  0
   16.7590   70.0211   -5.9016 C   0  0  1  0  0  0  0  0  0  0  0  0
   18.0721   71.4988   -7.1683 C   0  0  2  0  0  0  0  0  0  0  0  0
   15.5344   69.9304   -8.9029 H   0  0  0  0  0  0  0  0  0  0  0  0
   17.9076   69.4640   -9.7349 H   0  0  0  0  0  0  0  0  0  0  0  0
   18.8154   74.1456   -6.5202 O   0  0  0  0  0  0  0  0  0  0  0  0
   23.2907   73.0517   -6.3913 O   0  0  0  0  0  0  0  0  0  0  0  0
   19.4244   71.9335   -6.9594 N   0  0  0  0  0  0  0  0  0  0  0  0
   21.0431   73.5987   -6.4564 N   0  0  0  0  0  0  0  0  0  0  0  0
   19.6902   73.2851   -6.6389 C   0  0  0  0  0  0  0  0  0  0  0  0
   20.4700   71.0236   -7.0725 C   0  0  0  0  0  0  0  0  0  0  0  0
   21.7549   71.3389   -6.8966 C   0  0  0  0  0  0  0  0  0  0  0  0
   22.1183   72.7303   -6.5592 C   0  0  0  0  0  0  0  0  0  0  0  0
   21.2524   74.5346   -6.2328 H   0  0  0  0  0  0  0  0  0  0  0  0
   18.1169   70.5898   -2.8255 O   0  0  0  0  0  0  0  0  0  0  0  0
   18.5141   72.1119   -2.4534 P   0  0  2  0  0  0  0  0  0  0  0  0
   18.0126   72.2627   -0.9227 O   0  0  0  0  0  0  0  0  0  0  0  0
   17.9548   73.1410   -3.3926 O   0  0  0  0  0  0  0  0  0  0  0  0
   20.1251   72.1013   -2.3554 O   0  0  0  0  0  0  0  0  0  0  0  0
   22.1127   71.1347   -3.2107 O   0  0  0  0  0  0  0  0  0  0  0  0
   22.2906   69.6966    0.6560 O   0  0  0  0  0  0  0  0  0  0  0  0
   24.0965   71.7715   -0.1697 O   0  0  0  0  0  0  0  0  0  0  0  0
   19.7423   69.8626   -0.7070 O   0  0  0  0  0  0  0  0  0  0  0  0
   21.9927   70.6507   -0.3669 C   0  0  1  0  0  0  0  0  0  0  0  0
   23.2979   71.0164   -1.0765 C   0  0  1  0  0  0  0  0  0  0  0  0
   21.0002   70.0342   -1.3509 C   0  0  2  0  0  0  0  0  0  0  0  0
   23.0272   71.8259   -2.3518 C   0  0  1  0  0  0  0  0  0  0  0  0
   20.8407   70.8944   -2.6057 C   0  0  1  0  0  0  0  0  0  0  0  0
   22.9200   70.0820    1.2844 H   0  0  0  0  0  0  0  0  0  0  0  0
   24.2597   71.2492    0.6315 H   0  0  0  0  0  0  0  0  0  0  0  0
   19.8567   69.3162    0.0855 H   0  0  0  0  0  0  0  0  0  0  0  0
   25.1994   71.0006   -2.9076 O   0  0  0  0  0  0  0  0  0  0  0  0
   24.3016   72.0662   -3.1581 C   0  0  0  0  0  0  0  0  0  0  0  0
   26.0151   71.1399   -3.4145 H   0  0  0  0  0  0  0  0  0  0  0  0
 25 28  1  0
 25 24  1  0
 25 26  1  1
 25 27  2  0
  1  4  1  0
  1 24  1  0
  1  2  1  1
  1  3  2  0
  6 11  1  0
  6 12  1  0
 29 36  1  0
 29 37  1  0
  9  7  1  6
  7 13  1  0
 10  8  1  6
  8 14  1  0
 37 28  1  1
  4  5  1  0
 33 30  1  1
 30 38  1  0
 34 31  1  1
 31 39  1  0
 35 32  1  1
 32 40  1  0
 41 42  1  0
 41 43  1  0
 15 19  2  0
 16 22  2  0
 12 17  1  1
 17 19  1  0
 17 20  1  0
 18 19  1  0
 18 22  1  0
 18 23  1  0
  9 10  1  0
  9 11  1  0
 10 12  1  0
 11  5  1  1
 33 34  1  0
 33 35  1  0
 34 36  1  0
 35 37  1  0
 36 42  1  6
 20 21  2  0
 21 22  1  0
M  CHG  2   2  -1  26  -1
M  END
>  <COMPND>  (174) 
    8629 

>  <AUTHOR>  (174) 
    GENERATED BY OPEN BABEL 3.1.1

>  <MASTER>  (174) 
        0    0    0    0    0    0    0    0   58    0   58    0

>  <minimizedAffinity>  (174) 
-7.97843

>  <CNNscore>  (174) 
0.4118640721

>  <CNNaffinity>  (174) 
4.0713109970

>  <CNN_VS>  (174) 
1.6768267155

>  <CNNaffinity_variance>  (174) 
1.3234779835

$$$$
175
     RDKit          3D

 43 45  0  0  0  0  0  0  0  0999 V2000
   17.2136   69.4863   -2.5595 P   0  0  2  0  0  0  0  0  0  0  0  0
   16.9945   68.6902   -3.9508 O   0  0  0  0  0  0  0  0  0  0  0  0
   17.1001   68.6442   -1.3228 O   0  0  0  0  0  0  0  0  0  0  0  0
   16.1853   70.7316   -2.6584 O   0  0  0  0  0  0  0  0  0  0  0  0
   15.2512   70.7541   -3.7237 C   0  0  0  0  0  0  0  0  0  0  0  0
   16.6065   72.4587   -4.7394 O   0  0  0  0  0  0  0  0  0  0  0  0
   14.0477   73.5838   -5.8244 O   0  0  0  0  0  0  0  0  0  0  0  0
   15.0706   72.2533   -7.9738 O   0  0  0  0  0  0  0  0  0  0  0  0
   14.4235   72.2213   -5.6304 C   0  0  1  0  0  0  0  0  0  0  0  0
   15.4249   71.7969   -6.6842 C   0  0  2  0  0  0  0  0  0  0  0  0
   15.2514   72.1402   -4.3539 C   0  0  1  0  0  0  0  0  0  0  0  0
   16.7080   72.4292   -6.1724 C   0  0  2  0  0  0  0  0  0  0  0  0
   13.5176   73.6607   -6.6338 H   0  0  0  0  0  0  0  0  0  0  0  0
   14.2484   71.8223   -8.2548 H   0  0  0  0  0  0  0  0  0  0  0  0
   19.2996   73.5246   -6.4216 O   0  0  0  0  0  0  0  0  0  0  0  0
   21.1070   69.4512   -7.5972 O   0  0  0  0  0  0  0  0  0  0  0  0
   17.8742   71.6777   -6.5419 N   0  0  0  0  0  0  0  0  0  0  0  0
   20.1974   71.4954   -7.0066 N   0  0  0  0  0  0  0  0  0  0  0  0
   19.1288   72.3233   -6.6397 C   0  0  0  0  0  0  0  0  0  0  0  0
   17.7672   70.3158   -6.8025 C   0  0  0  0  0  0  0  0  0  0  0  0
   18.7957   69.5407   -7.1525 C   0  0  0  0  0  0  0  0  0  0  0  0
   20.1413   70.1374   -7.2771 C   0  0  0  0  0  0  0  0  0  0  0  0
   21.0811   71.9235   -7.0814 H   0  0  0  0  0  0  0  0  0  0  0  0
   18.6551   70.1882   -2.7655 O   0  0  0  0  0  0  0  0  0  0  0  0
   19.6042   70.9876   -1.7296 P   0  0  2  0  0  0  0  0  0  0  0  0
   20.2375   69.8084   -0.8208 O   0  0  0  0  0  0  0  0  0  0  0  0
   18.8988   72.0593   -0.9500 O   0  0  0  0  0  0  0  0  0  0  0  0
   20.8363   71.5157   -2.6286 O   0  0  0  0  0  0  0  0  0  0  0  0
   22.4452   72.2515   -1.0518 O   0  0  0  0  0  0  0  0  0  0  0  0
   24.5333   73.0167   -4.5310 O   0  0  0  0  0  0  0  0  0  0  0  0
   25.3219   70.8195   -2.8582 O   0  0  0  0  0  0  0  0  0  0  0  0
   21.6815   73.5016   -4.4221 O   0  0  0  0  0  0  0  0  0  0  0  0
   23.6329   72.2988   -3.6829 C   0  0  1  0  0  0  0  0  0  0  0  0
   24.4065   71.8317   -2.4483 C   0  0  1  0  0  0  0  0  0  0  0  0
   22.4838   73.2212   -3.2802 C   0  0  2  0  0  0  0  0  0  0  0  0
   23.4568   71.2892   -1.3719 C   0  0  1  0  0  0  0  0  0  0  0  0
   21.6294   72.6073   -2.1697 C   0  0  1  0  0  0  0  0  0  0  0  0
   25.2650   72.4366   -4.7907 H   0  0  0  0  0  0  0  0  0  0  0  0
   25.9155   71.1748   -3.5383 H   0  0  0  0  0  0  0  0  0  0  0  0
   22.2339   73.8901   -5.1177 H   0  0  0  0  0  0  0  0  0  0  0  0
   25.4667   70.4430   -0.3956 O   0  0  0  0  0  0  0  0  0  0  0  0
   24.1907   70.9644   -0.0727 C   0  0  0  0  0  0  0  0  0  0  0  0
   25.9453   70.2320    0.4218 H   0  0  0  0  0  0  0  0  0  0  0  0
 25 28  1  0
 25 24  1  0
 25 26  1  1
 25 27  2  0
  1  4  1  0
  1 24  1  0
  1  2  1  6
  1  3  2  0
  6 11  1  0
  6 12  1  0
 29 36  1  0
 29 37  1  0
  9  7  1  6
  7 13  1  0
 10  8  1  6
  8 14  1  0
 37 28  1  6
  4  5  1  0
 33 30  1  6
 30 38  1  0
 34 31  1  6
 31 39  1  0
 35 32  1  6
 32 40  1  0
 41 42  1  0
 41 43  1  0
 15 19  2  0
 16 22  2  0
 12 17  1  1
 17 19  1  0
 17 20  1  0
 18 19  1  0
 18 22  1  0
 18 23  1  0
  9 10  1  0
  9 11  1  0
 10 12  1  0
 11  5  1  6
 33 34  1  0
 33 35  1  0
 34 36  1  0
 35 37  1  0
 36 42  1  1
 20 21  2  0
 21 22  1  0
M  CHG  2   2  -1  26  -1
M  END
>  <COMPND>  (175) 
    8629 

>  <AUTHOR>  (175) 
    GENERATED BY OPEN BABEL 3.1.1

>  <MASTER>  (175) 
        0    0    0    0    0    0    0    0   58    0   58    0

>  <minimizedAffinity>  (175) 
-7.65695

>  <CNNscore>  (175) 
0.4084133506

>  <CNNaffinity>  (175) 
4.0769371986

>  <CNN_VS>  (175) 
1.6650755405

>  <CNNaffinity_variance>  (175) 
0.6521946192

$$$$
176
     RDKit          3D

 43 45  0  0  0  0  0  0  0  0999 V2000
   21.7406   71.0858    0.2630 P   0  0  2  0  0  0  0  0  0  0  0  0
   21.4940   71.1295    1.8613 O   0  0  0  0  0  0  0  0  0  0  0  0
   21.5193   72.3884   -0.4482 O   0  0  0  0  0  0  0  0  0  0  0  0
   20.8267   69.8480   -0.2374 O   0  0  0  0  0  0  0  0  0  0  0  0
   20.3751   69.8405   -1.5804 C   0  0  0  0  0  0  0  0  0  0  0  0
   18.8480   71.3298   -2.6866 O   0  0  0  0  0  0  0  0  0  0  0  0
   16.6560   69.6933   -1.4587 O   0  0  0  0  0  0  0  0  0  0  0  0
   16.7389   68.7521   -4.0168 O   0  0  0  0  0  0  0  0  0  0  0  0
   17.9241   69.2725   -1.9588 C   0  0  1  0  0  0  0  0  0  0  0  0
   17.9255   69.2934   -3.4731 C   0  0  2  0  0  0  0  0  0  0  0  0
   18.9429   70.3551   -1.6248 C   0  0  1  0  0  0  0  0  0  0  0  0
   18.0804   70.7758   -3.7676 C   0  0  2  0  0  0  0  0  0  0  0  0
   15.9890   69.0176   -1.6598 H   0  0  0  0  0  0  0  0  0  0  0  0
   16.6864   67.8076   -3.8026 H   0  0  0  0  0  0  0  0  0  0  0  0
   16.8131   71.0533   -6.2765 O   0  0  0  0  0  0  0  0  0  0  0  0
   20.8303   71.7075   -8.4387 O   0  0  0  0  0  0  0  0  0  0  0  0
   18.7709   71.0195   -5.0026 N   0  0  0  0  0  0  0  0  0  0  0  0
   18.8144   71.3790   -7.3511 N   0  0  0  0  0  0  0  0  0  0  0  0
   18.0407   71.1419   -6.2077 C   0  0  0  0  0  0  0  0  0  0  0  0
   20.1567   71.1351   -5.0107 C   0  0  0  0  0  0  0  0  0  0  0  0
   20.8797   71.3599   -6.1097 C   0  0  0  0  0  0  0  0  0  0  0  0
   20.1937   71.5005   -7.4103 C   0  0  0  0  0  0  0  0  0  0  0  0
   18.3272   71.4675   -8.2023 H   0  0  0  0  0  0  0  0  0  0  0  0
   23.2425   70.5004    0.1428 O   0  0  0  0  0  0  0  0  0  0  0  0
   24.6421   71.2311   -0.2042 P   0  0  2  0  0  0  0  0  0  0  0  0
   24.2776   72.1375   -1.4938 O   0  0  0  0  0  0  0  0  0  0  0  0
   25.7924   70.2895   -0.4141 O   0  0  0  0  0  0  0  0  0  0  0  0
   24.8564   72.2926    0.9926 O   0  0  0  0  0  0  0  0  0  0  0  0
   26.2076   71.3867    2.7161 O   0  0  0  0  0  0  0  0  0  0  0  0
   24.9788   74.8529    4.5940 O   0  0  0  0  0  0  0  0  0  0  0  0
   27.6902   74.6224    3.6759 O   0  0  0  0  0  0  0  0  0  0  0  0
   23.1308   73.3865    2.9164 O   0  0  0  0  0  0  0  0  0  0  0  0
   25.3775   74.0430    3.4847 C   0  0  1  0  0  0  0  0  0  0  0  0
   26.7899   73.5208    3.7553 C   0  0  1  0  0  0  0  0  0  0  0  0
   24.3949   72.8830    3.3349 C   0  0  2  0  0  0  0  0  0  0  0  0
   27.1826   72.4357    2.7437 C   0  0  1  0  0  0  0  0  0  0  0  0
   24.9038   71.8364    2.3421 C   0  0  1  0  0  0  0  0  0  0  0  0
   25.5983   75.5915    4.6944 H   0  0  0  0  0  0  0  0  0  0  0  0
   27.4308   75.3006    4.3193 H   0  0  0  0  0  0  0  0  0  0  0  0
   22.8194   74.0478    3.5532 H   0  0  0  0  0  0  0  0  0  0  0  0
   28.7773   71.9922    4.4669 O   0  0  0  0  0  0  0  0  0  0  0  0
   28.5228   71.7901    3.0889 C   0  0  0  0  0  0  0  0  0  0  0  0
   29.6270   71.5862    4.7010 H   0  0  0  0  0  0  0  0  0  0  0  0
 25 28  1  0
 25 24  1  0
 25 26  1  6
 25 27  2  0
  1  4  1  0
  1 24  1  0
  1  2  1  1
  1  3  2  0
  6 11  1  0
  6 12  1  0
 29 36  1  0
 29 37  1  0
  9  7  1  1
  7 13  1  0
 10  8  1  1
  8 14  1  0
 37 28  1  6
  4  5  1  0
 33 30  1  1
 30 38  1  0
 34 31  1  6
 31 39  1  0
 35 32  1  6
 32 40  1  0
 41 42  1  0
 41 43  1  0
 15 19  2  0
 16 22  2  0
 12 17  1  6
 17 19  1  0
 17 20  1  0
 18 19  1  0
 18 22  1  0
 18 23  1  0
  9 10  1  0
  9 11  1  0
 10 12  1  0
 11  5  1  6
 33 34  1  0
 33 35  1  0
 34 36  1  0
 35 37  1  0
 36 42  1  1
 20 21  2  0
 21 22  1  0
M  CHG  2   2  -1  26  -1
M  END
>  <COMPND>  (176) 
    8629 

>  <AUTHOR>  (176) 
    GENERATED BY OPEN BABEL 3.1.1

>  <MASTER>  (176) 
        0    0    0    0    0    0    0    0   58    0   58    0

>  <minimizedAffinity>  (176) 
-7.25428

>  <CNNscore>  (176) 
0.3819828033

>  <CNNaffinity>  (176) 
4.3127074242

>  <CNN_VS>  (176) 
1.6473801136

>  <CNNaffinity_variance>  (176) 
0.0178128630

$$$$
177
     RDKit          3D

 43 45  0  0  0  0  0  0  0  0999 V2000
   22.3691   73.3165   -5.2003 P   0  0  2  0  0  0  0  0  0  0  0  0
   23.5651   72.4250   -5.8266 O   0  0  0  0  0  0  0  0  0  0  0  0
   21.8737   74.4231   -6.0843 O   0  0  0  0  0  0  0  0  0  0  0  0
   22.9396   73.7725   -3.7565 O   0  0  0  0  0  0  0  0  0  0  0  0
   24.0178   74.6909   -3.7150 C   0  0  0  0  0  0  0  0  0  0  0  0
   22.8225   75.0490   -1.6615 O   0  0  0  0  0  0  0  0  0  0  0  0
   24.9984   76.9857   -0.9508 O   0  0  0  0  0  0  0  0  0  0  0  0
   25.6906   74.7653    0.4730 O   0  0  0  0  0  0  0  0  0  0  0  0
   25.0851   75.7534   -1.6643 C   0  0  1  0  0  0  0  0  0  0  0  0
   24.9438   74.5837   -0.7128 C   0  0  2  0  0  0  0  0  0  0  0  0
   23.8331   75.6187   -2.5220 C   0  0  1  0  0  0  0  0  0  0  0  0
   23.4456   74.5605   -0.4623 C   0  0  2  0  0  0  0  0  0  0  0  0
   25.7874   77.0942   -0.3961 H   0  0  0  0  0  0  0  0  0  0  0  0
   26.6371   74.7730    0.2612 H   0  0  0  0  0  0  0  0  0  0  0  0
   21.0326   74.0016    0.8953 O   0  0  0  0  0  0  0  0  0  0  0  0
   21.6705   69.4514    0.5354 O   0  0  0  0  0  0  0  0  0  0  0  0
   22.9566   73.2388   -0.1879 N   0  0  0  0  0  0  0  0  0  0  0  0
   21.3521   71.7364    0.7148 N   0  0  0  0  0  0  0  0  0  0  0  0
   21.7335   73.0672    0.5014 C   0  0  0  0  0  0  0  0  0  0  0  0
   23.6871   72.1299   -0.6012 C   0  0  0  0  0  0  0  0  0  0  0  0
   23.3101   70.8674   -0.3888 C   0  0  0  0  0  0  0  0  0  0  0  0
   22.0443   70.6010    0.3246 C   0  0  0  0  0  0  0  0  0  0  0  0
   20.5036   71.5925    1.1934 H   0  0  0  0  0  0  0  0  0  0  0  0
   21.2538   72.2108   -4.8176 O   0  0  0  0  0  0  0  0  0  0  0  0
   20.0546   72.2435   -3.7341 P   0  0  2  0  0  0  0  0  0  0  0  0
   19.6399   73.8066   -3.6868 O   0  0  0  0  0  0  0  0  0  0  0  0
   20.4149   71.6578   -2.3996 O   0  0  0  0  0  0  0  0  0  0  0  0
   18.8174   71.5157   -4.4720 O   0  0  0  0  0  0  0  0  0  0  0  0
   18.4624   69.5830   -5.7969 O   0  0  0  0  0  0  0  0  0  0  0  0
   16.5205   72.3635   -8.1524 O   0  0  0  0  0  0  0  0  0  0  0  0
   14.9854   70.4431   -6.6681 O   0  0  0  0  0  0  0  0  0  0  0  0
   18.9738   73.0828   -6.7947 O   0  0  0  0  0  0  0  0  0  0  0  0
   16.9567   71.7729   -6.9251 C   0  0  1  0  0  0  0  0  0  0  0  0
   16.3955   70.3515   -6.8508 C   0  0  1  0  0  0  0  0  0  0  0  0
   18.4838   71.7502   -6.8972 C   0  0  2  0  0  0  0  0  0  0  0  0
   17.0336   69.5636   -5.6988 C   0  0  1  0  0  0  0  0  0  0  0  0
   19.0150   70.8996   -5.7420 C   0  0  1  0  0  0  0  0  0  0  0  0
   15.5517   72.3814   -8.1763 H   0  0  0  0  0  0  0  0  0  0  0  0
   14.5948   70.9433   -7.4019 H   0  0  0  0  0  0  0  0  0  0  0  0
   18.6307   73.6109   -7.5317 H   0  0  0  0  0  0  0  0  0  0  0  0
   15.2265   68.0309   -5.3919 O   0  0  0  0  0  0  0  0  0  0  0  0
   16.6060   68.0975   -5.7029 C   0  0  0  0  0  0  0  0  0  0  0  0
   14.9403   67.1036   -5.3912 H   0  0  0  0  0  0  0  0  0  0  0  0
 25 28  1  0
 25 24  1  0
 25 26  1  1
 25 27  2  0
  1  4  1  0
  1 24  1  0
  1  2  1  6
  1  3  2  0
  6 11  1  0
  6 12  1  0
 29 36  1  0
 29 37  1  0
  9  7  1  1
  7 13  1  0
 10  8  1  1
  8 14  1  0
 37 28  1  1
  4  5  1  0
 33 30  1  6
 30 38  1  0
 34 31  1  1
 31 39  1  0
 35 32  1  1
 32 40  1  0
 41 42  1  0
 41 43  1  0
 15 19  2  0
 16 22  2  0
 12 17  1  6
 17 19  1  0
 17 20  1  0
 18 19  1  0
 18 22  1  0
 18 23  1  0
  9 10  1  0
  9 11  1  0
 10 12  1  0
 11  5  1  6
 33 34  1  0
 33 35  1  0
 34 36  1  0
 35 37  1  0
 36 42  1  6
 20 21  2  0
 21 22  1  0
M  CHG  2   2  -1  26  -1
M  END
>  <COMPND>  (177) 
    8629 

>  <AUTHOR>  (177) 
    GENERATED BY OPEN BABEL 3.1.1

>  <MASTER>  (177) 
        0    0    0    0    0    0    0    0   58    0   58    0

>  <minimizedAffinity>  (177) 
-6.24307

>  <CNNscore>  (177) 
0.3644443750

>  <CNNaffinity>  (177) 
3.9824948311

>  <CNN_VS>  (177) 
1.4513978958

>  <CNNaffinity_variance>  (177) 
0.1861021817

$$$$
178
     RDKit          3D

 43 45  0  0  0  0  0  0  0  0999 V2000
   20.7646   73.0659   -3.3449 P   0  0  2  0  0  0  0  0  0  0  0  0
   20.2039   74.5481   -3.0194 O   0  0  0  0  0  0  0  0  0  0  0  0
   22.2494   72.9793   -3.5430 O   0  0  0  0  0  0  0  0  0  0  0  0
   19.8594   72.5734   -4.5923 O   0  0  0  0  0  0  0  0  0  0  0  0
   20.5017   72.2880   -5.8226 C   0  0  0  0  0  0  0  0  0  0  0  0
   18.9984   70.4273   -5.5950 O   0  0  0  0  0  0  0  0  0  0  0  0
   20.4186   69.2326   -7.9501 O   0  0  0  0  0  0  0  0  0  0  0  0
   18.1439   70.2336   -9.0728 O   0  0  0  0  0  0  0  0  0  0  0  0
   20.1054   70.5986   -7.6833 C   0  0  1  0  0  0  0  0  0  0  0  0
   18.6274   70.8507   -7.8971 C   0  0  2  0  0  0  0  0  0  0  0  0
   20.2539   70.8300   -6.1847 C   0  0  1  0  0  0  0  0  0  0  0  0
   18.0213   70.2603   -6.6353 C   0  0  2  0  0  0  0  0  0  0  0  0
   20.3310   69.0608   -8.9013 H   0  0  0  0  0  0  0  0  0  0  0  0
   18.5589   70.6438   -9.8476 H   0  0  0  0  0  0  0  0  0  0  0  0
   15.4582   69.6125   -7.6298 O   0  0  0  0  0  0  0  0  0  0  0  0
   13.4416   72.8772   -5.0771 O   0  0  0  0  0  0  0  0  0  0  0  0
   16.8090   70.9246   -6.2474 N   0  0  0  0  0  0  0  0  0  0  0  0
   14.4562   71.2385   -6.3578 N   0  0  0  0  0  0  0  0  0  0  0  0
   15.5736   70.5232   -6.8070 C   0  0  0  0  0  0  0  0  0  0  0  0
   16.8526   71.9614   -5.3217 C   0  0  0  0  0  0  0  0  0  0  0  0
   15.7781   72.6343   -4.9048 C   0  0  0  0  0  0  0  0  0  0  0  0
   14.4486   72.2773   -5.4405 C   0  0  0  0  0  0  0  0  0  0  0  0
   13.5847   70.9765   -6.7343 H   0  0  0  0  0  0  0  0  0  0  0  0
   20.1975   72.1845   -2.1142 O   0  0  0  0  0  0  0  0  0  0  0  0
   20.4917   70.6557   -1.6792 P   0  0  2  0  0  0  0  0  0  0  0  0
   21.3648   70.0802   -2.9137 O   0  0  0  0  0  0  0  0  0  0  0  0
   19.2596   69.8569   -1.3667 O   0  0  0  0  0  0  0  0  0  0  0  0
   21.5404   70.7730   -0.4580 O   0  0  0  0  0  0  0  0  0  0  0  0
   22.3754   72.5206    0.9078 O   0  0  0  0  0  0  0  0  0  0  0  0
   25.9342   70.6311    0.0049 O   0  0  0  0  0  0  0  0  0  0  0  0
   24.8369   70.3995    2.6487 O   0  0  0  0  0  0  0  0  0  0  0  0
   23.8736   70.8704   -2.0141 O   0  0  0  0  0  0  0  0  0  0  0  0
   24.5360   70.7059    0.2958 C   0  0  1  0  0  0  0  0  0  0  0  0
   24.3672   71.3337    1.6808 C   0  0  1  0  0  0  0  0  0  0  0  0
   23.8496   71.5596   -0.7688 C   0  0  2  0  0  0  0  0  0  0  0  0
   22.8997   71.6916    1.9516 C   0  0  1  0  0  0  0  0  0  0  0  0
   22.4100   71.8994   -0.3786 C   0  0  1  0  0  0  0  0  0  0  0  0
   26.3759   70.0900    0.6769 H   0  0  0  0  0  0  0  0  0  0  0  0
   25.7644   70.1815    2.4661 H   0  0  0  0  0  0  0  0  0  0  0  0
   24.7904   70.6613   -2.2501 H   0  0  0  0  0  0  0  0  0  0  0  0
   23.1081   71.6155    4.3307 O   0  0  0  0  0  0  0  0  0  0  0  0
   22.7308   72.4612    3.2598 C   0  0  0  0  0  0  0  0  0  0  0  0
   23.0060   72.0922    5.1697 H   0  0  0  0  0  0  0  0  0  0  0  0
 25 28  1  0
 25 24  1  0
 25 26  1  6
 25 27  2  0
  1  4  1  0
  1 24  1  0
  1  2  1  1
  1  3  2  0
  6 11  1  0
  6 12  1  0
 29 36  1  0
 29 37  1  0
  9  7  1  1
  7 13  1  0
 10  8  1  6
  8 14  1  0
 37 28  1  1
  4  5  1  0
 33 30  1  6
 30 38  1  0
 34 31  1  1
 31 39  1  0
 35 32  1  6
 32 40  1  0
 41 42  1  0
 41 43  1  0
 15 19  2  0
 16 22  2  0
 12 17  1  1
 17 19  1  0
 17 20  1  0
 18 19  1  0
 18 22  1  0
 18 23  1  0
  9 10  1  0
  9 11  1  0
 10 12  1  0
 11  5  1  6
 33 34  1  0
 33 35  1  0
 34 36  1  0
 35 37  1  0
 36 42  1  1
 20 21  2  0
 21 22  1  0
M  CHG  2   2  -1  26  -1
M  END
>  <COMPND>  (178) 
    8629 

>  <AUTHOR>  (178) 
    GENERATED BY OPEN BABEL 3.1.1

>  <MASTER>  (178) 
        0    0    0    0    0    0    0    0   58    0   58    0

>  <minimizedAffinity>  (178) 
-7.04722

>  <CNNscore>  (178) 
0.3617921770

>  <CNNaffinity>  (178) 
4.0408940315

>  <CNN_VS>  (178) 
1.4619638920

>  <CNNaffinity_variance>  (178) 
0.3213970363

$$$$
179
     RDKit          3D

 43 45  0  0  0  0  0  0  0  0999 V2000
   22.2023   72.9864   -5.6449 P   0  0  2  0  0  0  0  0  0  0  0  0
   23.7845   72.7110   -5.8405 O   0  0  0  0  0  0  0  0  0  0  0  0
   21.6695   74.1761   -6.3880 O   0  0  0  0  0  0  0  0  0  0  0  0
   22.0090   73.0168   -4.0388 O   0  0  0  0  0  0  0  0  0  0  0  0
   20.8992   73.7173   -3.5045 C   0  0  0  0  0  0  0  0  0  0  0  0
   20.7260   71.6126   -2.3582 O   0  0  0  0  0  0  0  0  0  0  0  0
   18.0075   72.5260   -1.4828 O   0  0  0  0  0  0  0  0  0  0  0  0
   19.5313   72.9881    0.7311 O   0  0  0  0  0  0  0  0  0  0  0  0
   19.2014   73.2868   -1.6592 C   0  0  1  0  0  0  0  0  0  0  0  0
   20.1712   73.0131   -0.5286 C   0  0  2  0  0  0  0  0  0  0  0  0
   19.9461   72.7194   -2.8612 C   0  0  1  0  0  0  0  0  0  0  0  0
   20.7404   71.6606   -0.9221 C   0  0  2  0  0  0  0  0  0  0  0  0
   17.5147   72.8701   -0.7207 H   0  0  0  0  0  0  0  0  0  0  0  0
   19.1863   73.8711    0.9362 H   0  0  0  0  0  0  0  0  0  0  0  0
   21.6268   69.4454    0.5895 O   0  0  0  0  0  0  0  0  0  0  0  0
   25.9350   71.0708    0.7859 O   0  0  0  0  0  0  0  0  0  0  0  0
   22.0885   71.4791   -0.4629 N   0  0  0  0  0  0  0  0  0  0  0  0
   23.7713   70.2564    0.6859 N   0  0  0  0  0  0  0  0  0  0  0  0
   22.4297   70.3316    0.2903 C   0  0  0  0  0  0  0  0  0  0  0  0
   23.0562   72.4326   -0.7604 C   0  0  0  0  0  0  0  0  0  0  0  0
   24.3309   72.3467   -0.3746 C   0  0  0  0  0  0  0  0  0  0  0  0
   24.7699   71.1787    0.4161 C   0  0  0  0  0  0  0  0  0  0  0  0
   24.0320   69.4658    1.2120 H   0  0  0  0  0  0  0  0  0  0  0  0
   21.5333   71.5760   -6.0647 O   0  0  0  0  0  0  0  0  0  0  0  0
   20.7401   71.1337   -7.4019 P   0  0  2  0  0  0  0  0  0  0  0  0
   21.1900   69.5933   -7.6077 O   0  0  0  0  0  0  0  0  0  0  0  0
   20.9946   72.0170   -8.5889 O   0  0  0  0  0  0  0  0  0  0  0  0
   19.1929   71.0496   -6.9502 O   0  0  0  0  0  0  0  0  0  0  0  0
   18.1957   69.4315   -5.5346 O   0  0  0  0  0  0  0  0  0  0  0  0
   14.9813   70.2183   -8.0042 O   0  0  0  0  0  0  0  0  0  0  0  0
   14.9604   71.1826   -5.2991 O   0  0  0  0  0  0  0  0  0  0  0  0
   17.6566   70.1157   -9.1049 O   0  0  0  0  0  0  0  0  0  0  0  0
   16.1626   70.5343   -7.2626 C   0  0  1  0  0  0  0  0  0  0  0  0
   15.8988   70.2278   -5.7871 C   0  0  1  0  0  0  0  0  0  0  0  0
   17.3225   69.6905   -7.7880 C   0  0  2  0  0  0  0  0  0  0  0  0
   17.1957   70.2867   -4.9686 C   0  0  1  0  0  0  0  0  0  0  0  0
   18.5464   69.7817   -6.8748 C   0  0  1  0  0  0  0  0  0  0  0  0
   14.2411   70.7511   -7.6759 H   0  0  0  0  0  0  0  0  0  0  0  0
   14.1463   71.1354   -5.8247 H   0  0  0  0  0  0  0  0  0  0  0  0
   16.8738   70.0529   -9.6732 H   0  0  0  0  0  0  0  0  0  0  0  0
   15.7956   69.0624   -3.4687 O   0  0  0  0  0  0  0  0  0  0  0  0
   16.9831   69.8310   -3.5267 C   0  0  0  0  0  0  0  0  0  0  0  0
   15.6477   68.7652   -2.5568 H   0  0  0  0  0  0  0  0  0  0  0  0
 25 28  1  0
 25 24  1  0
 25 26  1  6
 25 27  2  0
  1  4  1  0
  1 24  1  0
  1  2  1  1
  1  3  2  0
  6 11  1  0
  6 12  1  0
 29 36  1  0
 29 37  1  0
  9  7  1  1
  7 13  1  0
 10  8  1  1
  8 14  1  0
 37 28  1  1
  4  5  1  0
 33 30  1  6
 30 38  1  0
 34 31  1  1
 31 39  1  0
 35 32  1  6
 32 40  1  0
 41 42  1  0
 41 43  1  0
 15 19  2  0
 16 22  2  0
 12 17  1  6
 17 19  1  0
 17 20  1  0
 18 19  1  0
 18 22  1  0
 18 23  1  0
  9 10  1  0
  9 11  1  0
 10 12  1  0
 11  5  1  1
 33 34  1  0
 33 35  1  0
 34 36  1  0
 35 37  1  0
 36 42  1  1
 20 21  2  0
 21 22  1  0
M  CHG  2   2  -1  26  -1
M  END
>  <COMPND>  (179) 
    8629 

>  <AUTHOR>  (179) 
    GENERATED BY OPEN BABEL 3.1.1

>  <MASTER>  (179) 
        0    0    0    0    0    0    0    0   58    0   58    0

>  <minimizedAffinity>  (179) 
-8.21228

>  <CNNscore>  (179) 
0.3584479988

>  <CNNaffinity>  (179) 
4.2272882462

>  <CNN_VS>  (179) 
1.5152629614

>  <CNNaffinity_variance>  (179) 
0.3844731450

$$$$
180
     RDKit          3D

 43 45  0  0  0  0  0  0  0  0999 V2000
   18.7713   74.5622   -1.5151 P   0  0  2  0  0  0  0  0  0  0  0  0
   19.7785   75.7849   -1.8437 O   0  0  0  0  0  0  0  0  0  0  0  0
   17.6336   74.9068   -0.5996 O   0  0  0  0  0  0  0  0  0  0  0  0
   19.7501   73.3791   -1.0049 O   0  0  0  0  0  0  0  0  0  0  0  0
   21.1147   73.4198   -1.3843 C   0  0  0  0  0  0  0  0  0  0  0  0
   22.9294   71.8648   -1.6349 O   0  0  0  0  0  0  0  0  0  0  0  0
   20.8286   69.7756   -2.0960 O   0  0  0  0  0  0  0  0  0  0  0  0
   21.5352   69.3447    0.5023 O   0  0  0  0  0  0  0  0  0  0  0  0
   20.8055   70.8999   -1.2181 C   0  0  1  0  0  0  0  0  0  0  0  0
   21.6948   70.6486   -0.0183 C   0  0  2  0  0  0  0  0  0  0  0  0
   21.5239   72.0511   -1.9110 C   0  0  1  0  0  0  0  0  0  0  0  0
   23.0796   70.8810   -0.5984 C   0  0  2  0  0  0  0  0  0  0  0  0
   20.3752   69.0277   -1.6753 H   0  0  0  0  0  0  0  0  0  0  0  0
   20.6387   69.2464    0.8593 H   0  0  0  0  0  0  0  0  0  0  0  0
   25.8389   70.2778   -0.5715 O   0  0  0  0  0  0  0  0  0  0  0  0
   26.5450   72.8225    3.2057 O   0  0  0  0  0  0  0  0  0  0  0  0
   24.0079   71.3727    0.3803 N   0  0  0  0  0  0  0  0  0  0  0  0
   26.1883   71.5455    1.3091 N   0  0  0  0  0  0  0  0  0  0  0  0
   25.3727   71.0092    0.3045 C   0  0  0  0  0  0  0  0  0  0  0  0
   23.5625   72.2059    1.4008 C   0  0  0  0  0  0  0  0  0  0  0  0
   24.3529   72.7078    2.3519 C   0  0  0  0  0  0  0  0  0  0  0  0
   25.7924   72.3768    2.3449 C   0  0  0  0  0  0  0  0  0  0  0  0
   27.1428   71.3056    1.2767 H   0  0  0  0  0  0  0  0  0  0  0  0
   18.3237   74.0555   -2.9834 O   0  0  0  0  0  0  0  0  0  0  0  0
   17.5587   72.7119   -3.4551 P   0  0  2  0  0  0  0  0  0  0  0  0
   16.1550   73.2685   -4.0357 O   0  0  0  0  0  0  0  0  0  0  0  0
   17.4161   71.6749   -2.3789 O   0  0  0  0  0  0  0  0  0  0  0  0
   18.3709   72.2157   -4.7587 O   0  0  0  0  0  0  0  0  0  0  0  0
   17.6046   70.0453   -5.3233 O   0  0  0  0  0  0  0  0  0  0  0  0
   20.6233   70.4263   -8.1150 O   0  0  0  0  0  0  0  0  0  0  0  0
   17.8826   70.5595   -8.9630 O   0  0  0  0  0  0  0  0  0  0  0  0
   20.9894   71.4718   -5.4406 O   0  0  0  0  0  0  0  0  0  0  0  0
   19.5535   70.8820   -7.2822 C   0  0  1  0  0  0  0  0  0  0  0  0
   18.2856   70.1183   -7.6694 C   0  0  1  0  0  0  0  0  0  0  0  0
   19.9130   70.6214   -5.8206 C   0  0  2  0  0  0  0  0  0  0  0  0
   17.1631   70.3553   -6.6502 C   0  0  1  0  0  0  0  0  0  0  0  0
   18.7135   70.8391   -4.8966 C   0  0  1  0  0  0  0  0  0  0  0  0
   20.4016   70.5893   -9.0444 H   0  0  0  0  0  0  0  0  0  0  0  0
   18.6004   70.4046   -9.5970 H   0  0  0  0  0  0  0  0  0  0  0  0
   21.7426   71.3242   -6.0329 H   0  0  0  0  0  0  0  0  0  0  0  0
   15.1780   70.0910   -7.9535 O   0  0  0  0  0  0  0  0  0  0  0  0
   15.9426   69.4811   -6.9299 C   0  0  0  0  0  0  0  0  0  0  0  0
   14.3980   69.5455   -8.1423 H   0  0  0  0  0  0  0  0  0  0  0  0
 25 28  1  0
 25 24  1  0
 25 26  1  6
 25 27  2  0
  1  4  1  0
  1 24  1  0
  1  2  1  6
  1  3  2  0
  6 11  1  0
  6 12  1  0
 29 36  1  0
 29 37  1  0
  9  7  1  6
  7 13  1  0
 10  8  1  6
  8 14  1  0
 37 28  1  6
  4  5  1  0
 33 30  1  6
 30 38  1  0
 34 31  1  6
 31 39  1  0
 35 32  1  1
 32 40  1  0
 41 42  1  0
 41 43  1  0
 15 19  2  0
 16 22  2  0
 12 17  1  1
 17 19  1  0
 17 20  1  0
 18 19  1  0
 18 22  1  0
 18 23  1  0
  9 10  1  0
  9 11  1  0
 10 12  1  0
 11  5  1  1
 33 34  1  0
 33 35  1  0
 34 36  1  0
 35 37  1  0
 36 42  1  6
 20 21  2  0
 21 22  1  0
M  CHG  2   2  -1  26  -1
M  END
>  <COMPND>  (180) 
    8629 

>  <AUTHOR>  (180) 
    GENERATED BY OPEN BABEL 3.1.1

>  <MASTER>  (180) 
        0    0    0    0    0    0    0    0   58    0   58    0

>  <minimizedAffinity>  (180) 
-6.80613

>  <CNNscore>  (180) 
0.3554830551

>  <CNNaffinity>  (180) 
4.1791892052

>  <CNN_VS>  (180) 
1.4856309891

>  <CNNaffinity_variance>  (180) 
0.1723346263

$$$$
181
     RDKit          3D

 43 45  0  0  0  0  0  0  0  0999 V2000
   23.7298   71.4802   -1.8532 P   0  0  2  0  0  0  0  0  0  0  0  0
   24.7619   71.0288   -3.0144 O   0  0  0  0  0  0  0  0  0  0  0  0
   23.5221   72.9611   -1.7305 O   0  0  0  0  0  0  0  0  0  0  0  0
   24.2863   70.7365   -0.5284 O   0  0  0  0  0  0  0  0  0  0  0  0
   24.5172   71.5114    0.6353 C   0  0  0  0  0  0  0  0  0  0  0  0
   24.1648   71.1130    2.9786 O   0  0  0  0  0  0  0  0  0  0  0  0
   21.2412   71.4527    2.4055 O   0  0  0  0  0  0  0  0  0  0  0  0
   21.9221   73.8676    3.4737 O   0  0  0  0  0  0  0  0  0  0  0  0
   22.3579   72.1294    1.8306 C   0  0  1  0  0  0  0  0  0  0  0  0
   22.9300   73.1291    2.8138 C   0  0  2  0  0  0  0  0  0  0  0  0
   23.4970   71.1262    1.6979 C   0  0  1  0  0  0  0  0  0  0  0  0
   23.7101   72.2308    3.7586 C   0  0  2  0  0  0  0  0  0  0  0  0
   20.5009   72.0731    2.4998 H   0  0  0  0  0  0  0  0  0  0  0  0
   21.4546   74.4232    2.8306 H   0  0  0  0  0  0  0  0  0  0  0  0
   23.6883   73.5865    6.2365 O   0  0  0  0  0  0  0  0  0  0  0  0
   28.1339   74.7399    5.8524 O   0  0  0  0  0  0  0  0  0  0  0  0
   24.8479   72.8940    4.3304 N   0  0  0  0  0  0  0  0  0  0  0  0
   25.9019   74.1595    6.0433 N   0  0  0  0  0  0  0  0  0  0  0  0
   24.7309   73.5463    5.5799 C   0  0  0  0  0  0  0  0  0  0  0  0
   26.0629   72.8930    3.6540 C   0  0  0  0  0  0  0  0  0  0  0  0
   27.1700   73.4835    4.1088 C   0  0  0  0  0  0  0  0  0  0  0  0
   27.1329   74.1871    5.4071 C   0  0  0  0  0  0  0  0  0  0  0  0
   25.8442   74.6205    6.9116 H   0  0  0  0  0  0  0  0  0  0  0  0
   22.3946   70.6407   -2.2073 O   0  0  0  0  0  0  0  0  0  0  0  0
   20.9560   70.5751   -1.4731 P   0  0  2  0  0  0  0  0  0  0  0  0
   20.5982   72.1322   -1.2182 O   0  0  0  0  0  0  0  0  0  0  0  0
   20.9346   69.7243   -0.2363 O   0  0  0  0  0  0  0  0  0  0  0  0
   19.9298   70.1045   -2.6265 O   0  0  0  0  0  0  0  0  0  0  0  0
   18.6181   71.7169   -3.7649 O   0  0  0  0  0  0  0  0  0  0  0  0
   16.3409   68.3574   -4.5260 O   0  0  0  0  0  0  0  0  0  0  0  0
   17.8817   69.5357   -6.6439 O   0  0  0  0  0  0  0  0  0  0  0  0
   17.6040   68.6909   -1.9428 O   0  0  0  0  0  0  0  0  0  0  0  0
   17.5501   69.0920   -4.3171 C   0  0  1  0  0  0  0  0  0  0  0  0
   17.6449   70.1756   -5.3930 C   0  0  1  0  0  0  0  0  0  0  0  0
   17.5194   69.7184   -2.9243 C   0  0  2  0  0  0  0  0  0  0  0  0
   18.7710   71.1701   -5.0799 C   0  0  1  0  0  0  0  0  0  0  0  0
   18.6527   70.7281   -2.7340 C   0  0  1  0  0  0  0  0  0  0  0  0
   16.3543   67.9567   -5.4085 H   0  0  0  0  0  0  0  0  0  0  0  0
   17.1638   68.9100   -6.8295 H   0  0  0  0  0  0  0  0  0  0  0  0
   16.8810   68.0584   -2.0738 H   0  0  0  0  0  0  0  0  0  0  0  0
   19.3274   71.9063   -7.2839 O   0  0  0  0  0  0  0  0  0  0  0  0
   18.7823   72.3464   -6.0537 C   0  0  0  0  0  0  0  0  0  0  0  0
   19.3406   72.6445   -7.9136 H   0  0  0  0  0  0  0  0  0  0  0  0
 25 28  1  0
 25 24  1  0
 25 26  1  1
 25 27  2  0
  1  4  1  0
  1 24  1  0
  1  2  1  6
  1  3  2  0
  6 11  1  0
  6 12  1  0
 29 36  1  0
 29 37  1  0
  9  7  1  1
  7 13  1  0
 10  8  1  1
  8 14  1  0
 37 28  1  6
  4  5  1  0
 33 30  1  6
 30 38  1  0
 34 31  1  6
 31 39  1  0
 35 32  1  1
 32 40  1  0
 41 42  1  0
 41 43  1  0
 15 19  2  0
 16 22  2  0
 12 17  1  6
 17 19  1  0
 17 20  1  0
 18 19  1  0
 18 22  1  0
 18 23  1  0
  9 10  1  0
  9 11  1  0
 10 12  1  0
 11  5  1  6
 33 34  1  0
 33 35  1  0
 34 36  1  0
 35 37  1  0
 36 42  1  6
 20 21  2  0
 21 22  1  0
M  CHG  2   2  -1  26  -1
M  END
>  <COMPND>  (181) 
    8629 

>  <AUTHOR>  (181) 
    GENERATED BY OPEN BABEL 3.1.1

>  <MASTER>  (181) 
        0    0    0    0    0    0    0    0   58    0   58    0

>  <minimizedAffinity>  (181) 
-7.67472

>  <CNNscore>  (181) 
0.7806333303

>  <CNNaffinity>  (181) 
4.5023894310

>  <CNN_VS>  (181) 
3.5147151947

>  <CNNaffinity_variance>  (181) 
0.1072230712

$$$$
182
     RDKit          3D

 43 45  0  0  0  0  0  0  0  0999 V2000
   20.9333   70.5146   -0.7978 P   0  0  2  0  0  0  0  0  0  0  0  0
   21.0138   69.7946   -2.2444 O   0  0  0  0  0  0  0  0  0  0  0  0
   21.3079   69.6437    0.3652 O   0  0  0  0  0  0  0  0  0  0  0  0
   19.4408   71.1380   -0.7568 O   0  0  0  0  0  0  0  0  0  0  0  0
   19.1687   72.2923   -1.5322 C   0  0  0  0  0  0  0  0  0  0  0  0
   17.7013   72.3300   -3.4346 O   0  0  0  0  0  0  0  0  0  0  0  0
   15.6085   71.2024   -1.6073 O   0  0  0  0  0  0  0  0  0  0  0  0
   16.4466   69.0009   -2.9813 O   0  0  0  0  0  0  0  0  0  0  0  0
   17.0118   70.9471   -1.6380 C   0  0  1  0  0  0  0  0  0  0  0  0
   17.3603   70.0667   -2.8200 C   0  0  2  0  0  0  0  0  0  0  0  0
   17.7180   72.2498   -1.9925 C   0  0  1  0  0  0  0  0  0  0  0  0
   17.3153   71.0549   -3.9731 C   0  0  2  0  0  0  0  0  0  0  0  0
   15.1362   70.3848   -1.3826 H   0  0  0  0  0  0  0  0  0  0  0  0
   16.5133   68.4001   -2.2228 H   0  0  0  0  0  0  0  0  0  0  0  0
   16.6840   69.2962   -6.0912 O   0  0  0  0  0  0  0  0  0  0  0  0
   20.8615   69.7762   -7.9779 O   0  0  0  0  0  0  0  0  0  0  0  0
   18.2190   70.7028   -5.0317 N   0  0  0  0  0  0  0  0  0  0  0  0
   18.7645   69.5368   -7.0290 N   0  0  0  0  0  0  0  0  0  0  0  0
   17.8038   69.8099   -6.0470 C   0  0  0  0  0  0  0  0  0  0  0  0
   19.5009   71.2413   -5.0563 C   0  0  0  0  0  0  0  0  0  0  0  0
   20.4056   70.9698   -5.9992 C   0  0  0  0  0  0  0  0  0  0  0  0
   20.0518   70.0460   -7.0962 C   0  0  0  0  0  0  0  0  0  0  0  0
   18.4978   68.9170   -7.7462 H   0  0  0  0  0  0  0  0  0  0  0  0
   21.8672   71.8200   -0.9891 O   0  0  0  0  0  0  0  0  0  0  0  0
   23.4550   72.0304   -0.7712 P   0  0  2  0  0  0  0  0  0  0  0  0
   23.7657   73.3883   -1.5941 O   0  0  0  0  0  0  0  0  0  0  0  0
   24.2934   70.8537   -1.1789 O   0  0  0  0  0  0  0  0  0  0  0  0
   23.6022   72.4511    0.7801 O   0  0  0  0  0  0  0  0  0  0  0  0
   25.3388   71.5259    2.1011 O   0  0  0  0  0  0  0  0  0  0  0  0
   22.7478   72.6527    5.1124 O   0  0  0  0  0  0  0  0  0  0  0  0
   25.1718   74.1363    4.6986 O   0  0  0  0  0  0  0  0  0  0  0  0
   21.7043   71.5580    2.6442 O   0  0  0  0  0  0  0  0  0  0  0  0
   23.4040   72.7686    3.8470 C   0  0  1  0  0  0  0  0  0  0  0  0
   24.9101   72.8722    4.0954 C   0  0  1  0  0  0  0  0  0  0  0  0
   23.0817   71.5369    3.0029 C   0  0  2  0  0  0  0  0  0  0  0  0
   25.6984   72.7312    2.7863 C   0  0  1  0  0  0  0  0  0  0  0  0
   23.9551   71.4673    1.7490 C   0  0  1  0  0  0  0  0  0  0  0  0
   22.9479   73.4319    5.6531 H   0  0  0  0  0  0  0  0  0  0  0  0
   24.6676   74.2127    5.5239 H   0  0  0  0  0  0  0  0  0  0  0  0
   21.1619   71.6018    3.4466 H   0  0  0  0  0  0  0  0  0  0  0  0
   27.6467   71.3481    2.8007 O   0  0  0  0  0  0  0  0  0  0  0  0
   27.2050   72.6736    3.0294 C   0  0  0  0  0  0  0  0  0  0  0  0
   28.6039   71.2964    2.9513 H   0  0  0  0  0  0  0  0  0  0  0  0
 25 28  1  0
 25 24  1  0
 25 26  1  6
 25 27  2  0
  1  4  1  0
  1 24  1  0
  1  2  1  6
  1  3  2  0
  6 11  1  0
  6 12  1  0
 29 36  1  0
 29 37  1  0
  9  7  1  6
  7 13  1  0
 10  8  1  6
  8 14  1  0
 37 28  1  6
  4  5  1  0
 33 30  1  1
 30 38  1  0
 34 31  1  6
 31 39  1  0
 35 32  1  6
 32 40  1  0
 41 42  1  0
 41 43  1  0
 15 19  2  0
 16 22  2  0
 12 17  1  6
 17 19  1  0
 17 20  1  0
 18 19  1  0
 18 22  1  0
 18 23  1  0
  9 10  1  0
  9 11  1  0
 10 12  1  0
 11  5  1  6
 33 34  1  0
 33 35  1  0
 34 36  1  0
 35 37  1  0
 36 42  1  1
 20 21  2  0
 21 22  1  0
M  CHG  2   2  -1  26  -1
M  END
>  <COMPND>  (182) 
    8629 

>  <AUTHOR>  (182) 
    GENERATED BY OPEN BABEL 3.1.1

>  <MASTER>  (182) 
        0    0    0    0    0    0    0    0   58    0   58    0

>  <minimizedAffinity>  (182) 
-7.11730

>  <CNNscore>  (182) 
0.7521315813

>  <CNNaffinity>  (182) 
4.4533143044

>  <CNN_VS>  (182) 
3.3494782448

>  <CNNaffinity_variance>  (182) 
0.0286640786

$$$$
183
     RDKit          3D

 43 45  0  0  0  0  0  0  0  0999 V2000
   23.7321   71.7271   -2.6917 P   0  0  2  0  0  0  0  0  0  0  0  0
   23.8043   73.2937   -2.2944 O   0  0  0  0  0  0  0  0  0  0  0  0
   25.0617   71.0430   -2.8168 O   0  0  0  0  0  0  0  0  0  0  0  0
   22.8031   71.7047   -4.0163 O   0  0  0  0  0  0  0  0  0  0  0  0
   21.9186   72.7889   -4.2401 C   0  0  0  0  0  0  0  0  0  0  0  0
   21.2530   71.8210   -6.3362 O   0  0  0  0  0  0  0  0  0  0  0  0
   21.1572   74.6273   -7.3879 O   0  0  0  0  0  0  0  0  0  0  0  0
   18.5274   74.0779   -6.9199 O   0  0  0  0  0  0  0  0  0  0  0  0
   20.8131   74.1368   -6.0932 C   0  0  1  0  0  0  0  0  0  0  0  0
   19.4930   73.3966   -6.1451 C   0  0  2  0  0  0  0  0  0  0  0  0
   21.7893   73.0219   -5.7391 C   0  0  1  0  0  0  0  0  0  0  0  0
   19.9011   72.0670   -6.7565 C   0  0  2  0  0  0  0  0  0  0  0  0
   20.5476   75.3407   -7.6357 H   0  0  0  0  0  0  0  0  0  0  0  0
   18.3008   74.9171   -6.4895 H   0  0  0  0  0  0  0  0  0  0  0  0
   18.6784   70.1889   -8.4758 O   0  0  0  0  0  0  0  0  0  0  0  0
   16.7345   67.9502   -4.9473 O   0  0  0  0  0  0  0  0  0  0  0  0
   19.0705   70.9827   -6.3140 N   0  0  0  0  0  0  0  0  0  0  0  0
   17.7116   69.0756   -6.7174 N   0  0  0  0  0  0  0  0  0  0  0  0
   18.5037   70.0961   -7.2590 C   0  0  0  0  0  0  0  0  0  0  0  0
   18.8256   70.8068   -4.9564 C   0  0  0  0  0  0  0  0  0  0  0  0
   18.0670   69.8293   -4.4563 C   0  0  0  0  0  0  0  0  0  0  0  0
   17.4375   68.8599   -5.3761 C   0  0  0  0  0  0  0  0  0  0  0  0
   17.3060   68.4461   -7.3569 H   0  0  0  0  0  0  0  0  0  0  0  0
   22.7615   71.1086   -1.5567 O   0  0  0  0  0  0  0  0  0  0  0  0
   23.0498   70.7052   -0.0182 P   0  0  2  0  0  0  0  0  0  0  0  0
   24.6127   70.2870   -0.0308 O   0  0  0  0  0  0  0  0  0  0  0  0
   22.1306   69.6492    0.5238 O   0  0  0  0  0  0  0  0  0  0  0  0
   23.0087   72.1043    0.7855 O   0  0  0  0  0  0  0  0  0  0  0  0
   25.0197   73.2243    1.3495 O   0  0  0  0  0  0  0  0  0  0  0  0
   22.5167   74.9003    4.1738 O   0  0  0  0  0  0  0  0  0  0  0  0
   23.3998   76.4816    1.9450 O   0  0  0  0  0  0  0  0  0  0  0  0
   22.2495   72.1009    3.4871 O   0  0  0  0  0  0  0  0  0  0  0  0
   22.8605   74.3548    2.8972 C   0  0  1  0  0  0  0  0  0  0  0  0
   23.9657   75.2197    2.2880 C   0  0  1  0  0  0  0  0  0  0  0  0
   23.3431   72.9173    3.0822 C   0  0  2  0  0  0  0  0  0  0  0  0
   24.5720   74.5508    1.0470 C   0  0  1  0  0  0  0  0  0  0  0  0
   23.9728   72.3638    1.8027 C   0  0  1  0  0  0  0  0  0  0  0  0
   22.2090   75.8128    4.0633 H   0  0  0  0  0  0  0  0  0  0  0  0
   23.0200   76.8931    2.7372 H   0  0  0  0  0  0  0  0  0  0  0  0
   21.8598   72.4616    4.2982 H   0  0  0  0  0  0  0  0  0  0  0  0
   25.6994   75.3627   -0.8969 O   0  0  0  0  0  0  0  0  0  0  0  0
   25.7801   75.3192    0.5159 C   0  0  0  0  0  0  0  0  0  0  0  0
   26.4618   75.8491   -1.2489 H   0  0  0  0  0  0  0  0  0  0  0  0
 25 28  1  0
 25 24  1  0
 25 26  1  6
 25 27  2  0
  1  4  1  0
  1 24  1  0
  1  2  1  1
  1  3  2  0
  6 11  1  0
  6 12  1  0
 29 36  1  0
 29 37  1  0
  9  7  1  6
  7 13  1  0
 10  8  1  6
  8 14  1  0
 37 28  1  6
  4  5  1  0
 33 30  1  1
 30 38  1  0
 34 31  1  6
 31 39  1  0
 35 32  1  6
 32 40  1  0
 41 42  1  0
 41 43  1  0
 15 19  2  0
 16 22  2  0
 12 17  1  1
 17 19  1  0
 17 20  1  0
 18 19  1  0
 18 22  1  0
 18 23  1  0
  9 10  1  0
  9 11  1  0
 10 12  1  0
 11  5  1  1
 33 34  1  0
 33 35  1  0
 34 36  1  0
 35 37  1  0
 36 42  1  1
 20 21  2  0
 21 22  1  0
M  CHG  2   2  -1  26  -1
M  END
>  <COMPND>  (183) 
    8629 

>  <AUTHOR>  (183) 
    GENERATED BY OPEN BABEL 3.1.1

>  <MASTER>  (183) 
        0    0    0    0    0    0    0    0   58    0   58    0

>  <minimizedAffinity>  (183) 
-6.74719

>  <CNNscore>  (183) 
0.7166423202

>  <CNNaffinity>  (183) 
4.3860383034

>  <CNN_VS>  (183) 
3.1432206631

>  <CNNaffinity_variance>  (183) 
0.0381017029

$$$$
184
     RDKit          3D

 43 45  0  0  0  0  0  0  0  0999 V2000
   23.5741   71.4817   -2.6683 P   0  0  2  0  0  0  0  0  0  0  0  0
   23.2890   72.9981   -2.1819 O   0  0  0  0  0  0  0  0  0  0  0  0
   24.9938   71.1993   -3.0635 O   0  0  0  0  0  0  0  0  0  0  0  0
   22.4615   71.2259   -3.8148 O   0  0  0  0  0  0  0  0  0  0  0  0
   22.0277   72.3271   -4.5938 C   0  0  0  0  0  0  0  0  0  0  0  0
   20.7399   70.6315   -5.7075 O   0  0  0  0  0  0  0  0  0  0  0  0
   20.6489   72.5025   -8.0488 O   0  0  0  0  0  0  0  0  0  0  0  0
   18.1948   72.8527   -6.9124 O   0  0  0  0  0  0  0  0  0  0  0  0
   20.6118   72.8002   -6.6541 C   0  0  1  0  0  0  0  0  0  0  0  0
   19.2580   72.4439   -6.0762 C   0  0  2  0  0  0  0  0  0  0  0  0
   21.5312   71.8174   -5.9398 C   0  0  1  0  0  0  0  0  0  0  0  0
   19.3563   70.9329   -5.9518 C   0  0  2  0  0  0  0  0  0  0  0  0
   20.0694   73.1176   -8.5261 H   0  0  0  0  0  0  0  0  0  0  0  0
   18.1742   73.8212   -6.9593 H   0  0  0  0  0  0  0  0  0  0  0  0
   16.6581   70.1292   -6.1786 O   0  0  0  0  0  0  0  0  0  0  0  0
   16.4338   68.9834   -1.7201 O   0  0  0  0  0  0  0  0  0  0  0  0
   18.5687   70.4204   -4.8663 N   0  0  0  0  0  0  0  0  0  0  0  0
   16.5487   69.5592   -3.9584 N   0  0  0  0  0  0  0  0  0  0  0  0
   17.2225   70.0461   -5.0858 C   0  0  0  0  0  0  0  0  0  0  0  0
   19.1319   70.2928   -3.6013 C   0  0  0  0  0  0  0  0  0  0  0  0
   18.4754   69.8279   -2.5363 C   0  0  0  0  0  0  0  0  0  0  0  0
   17.0645   69.4148   -2.6803 C   0  0  0  0  0  0  0  0  0  0  0  0
   15.6094   69.2926   -4.0873 H   0  0  0  0  0  0  0  0  0  0  0  0
   23.0312   70.5949   -1.4307 O   0  0  0  0  0  0  0  0  0  0  0  0
   22.0257   70.9647   -0.2203 P   0  0  2  0  0  0  0  0  0  0  0  0
   21.8297   69.5523    0.5440 O   0  0  0  0  0  0  0  0  0  0  0  0
   20.7454   71.6136   -0.6603 O   0  0  0  0  0  0  0  0  0  0  0  0
   22.9139   71.8556    0.7909 O   0  0  0  0  0  0  0  0  0  0  0  0
   24.7308   71.4345    2.2531 O   0  0  0  0  0  0  0  0  0  0  0  0
   22.4014   73.7589    4.7475 O   0  0  0  0  0  0  0  0  0  0  0  0
   24.8120   74.8519    3.6329 O   0  0  0  0  0  0  0  0  0  0  0  0
   21.1505   71.8434    2.9738 O   0  0  0  0  0  0  0  0  0  0  0  0
   22.9595   73.3450    3.4974 C   0  0  1  0  0  0  0  0  0  0  0  0
   24.4819   73.4665    3.5883 C   0  0  1  0  0  0  0  0  0  0  0  0
   22.5510   71.8989    3.2228 C   0  0  2  0  0  0  0  0  0  0  0  0
   25.1639   72.7930    2.3898 C   0  0  1  0  0  0  0  0  0  0  0  0
   23.3233   71.3085    2.0416 C   0  0  1  0  0  0  0  0  0  0  0  0
   22.6566   74.6764    4.9276 H   0  0  0  0  0  0  0  0  0  0  0  0
   24.3747   75.2654    4.3938 H   0  0  0  0  0  0  0  0  0  0  0  0
   20.6728   72.2198    3.7288 H   0  0  0  0  0  0  0  0  0  0  0  0
   27.1185   71.4200    2.4454 O   0  0  0  0  0  0  0  0  0  0  0  0
   26.6835   72.7640    2.5384 C   0  0  0  0  0  0  0  0  0  0  0  0
   28.0839   71.3861    2.5380 H   0  0  0  0  0  0  0  0  0  0  0  0
 25 28  1  0
 25 24  1  0
 25 26  1  1
 25 27  2  0
  1  4  1  0
  1 24  1  0
  1  2  1  1
  1  3  2  0
  6 11  1  0
  6 12  1  0
 29 36  1  0
 29 37  1  0
  9  7  1  6
  7 13  1  0
 10  8  1  6
  8 14  1  0
 37 28  1  6
  4  5  1  0
 33 30  1  1
 30 38  1  0
 34 31  1  6
 31 39  1  0
 35 32  1  6
 32 40  1  0
 41 42  1  0
 41 43  1  0
 15 19  2  0
 16 22  2  0
 12 17  1  1
 17 19  1  0
 17 20  1  0
 18 19  1  0
 18 22  1  0
 18 23  1  0
  9 10  1  0
  9 11  1  0
 10 12  1  0
 11  5  1  1
 33 34  1  0
 33 35  1  0
 34 36  1  0
 35 37  1  0
 36 42  1  1
 20 21  2  0
 21 22  1  0
M  CHG  2   2  -1  26  -1
M  END
>  <COMPND>  (184) 
    8629 

>  <AUTHOR>  (184) 
    GENERATED BY OPEN BABEL 3.1.1

>  <MASTER>  (184) 
        0    0    0    0    0    0    0    0   58    0   58    0

>  <minimizedAffinity>  (184) 
-7.57195

>  <CNNscore>  (184) 
0.6732697487

>  <CNNaffinity>  (184) 
4.4039444923

>  <CNN_VS>  (184) 
2.9650425911

>  <CNNaffinity_variance>  (184) 
0.1848748922

$$$$
185
     RDKit          3D

 43 45  0  0  0  0  0  0  0  0999 V2000
   21.0508   70.9894   -1.8744 P   0  0  2  0  0  0  0  0  0  0  0  0
   20.3986   69.8232   -0.9623 O   0  0  0  0  0  0  0  0  0  0  0  0
   20.7528   72.3888   -1.4225 O   0  0  0  0  0  0  0  0  0  0  0  0
   20.5752   70.6196   -3.3761 O   0  0  0  0  0  0  0  0  0  0  0  0
   20.6494   71.6220   -4.3749 C   0  0  0  0  0  0  0  0  0  0  0  0
   19.0396   70.1547   -5.3896 O   0  0  0  0  0  0  0  0  0  0  0  0
   19.6116   71.6041   -7.9514 O   0  0  0  0  0  0  0  0  0  0  0  0
   17.2647   72.7321   -7.1415 O   0  0  0  0  0  0  0  0  0  0  0  0
   19.5572   72.1129   -6.6197 C   0  0  1  0  0  0  0  0  0  0  0  0
   18.1204   72.2027   -6.1494 C   0  0  2  0  0  0  0  0  0  0  0  0
   20.1310   71.0525   -5.6883 C   0  0  1  0  0  0  0  0  0  0  0  0
   17.8060   70.7536   -5.8188 C   0  0  2  0  0  0  0  0  0  0  0  0
   19.2507   72.2641   -8.5646 H   0  0  0  0  0  0  0  0  0  0  0  0
   17.5047   73.6554   -7.3166 H   0  0  0  0  0  0  0  0  0  0  0  0
   16.4609   68.3582   -5.1622 O   0  0  0  0  0  0  0  0  0  0  0  0
   14.1066   70.3965   -1.7646 O   0  0  0  0  0  0  0  0  0  0  0  0
   16.8367   70.6297   -4.7669 N   0  0  0  0  0  0  0  0  0  0  0  0
   15.2899   69.3751   -3.4709 N   0  0  0  0  0  0  0  0  0  0  0  0
   16.2184   69.3819   -4.5196 C   0  0  0  0  0  0  0  0  0  0  0  0
   16.5083   71.7376   -3.9931 C   0  0  0  0  0  0  0  0  0  0  0  0
   15.6198   71.7148   -2.9975 C   0  0  0  0  0  0  0  0  0  0  0  0
   14.9288   70.4499   -2.6740 C   0  0  0  0  0  0  0  0  0  0  0  0
   14.8463   68.5167   -3.2806 H   0  0  0  0  0  0  0  0  0  0  0  0
   22.6212   70.6063   -1.8860 O   0  0  0  0  0  0  0  0  0  0  0  0
   23.9410   71.5341   -1.7852 P   0  0  2  0  0  0  0  0  0  0  0  0
   23.5107   72.8785   -2.5757 O   0  0  0  0  0  0  0  0  0  0  0  0
   25.1911   70.8843   -2.3036 O   0  0  0  0  0  0  0  0  0  0  0  0
   24.0111   71.9776   -0.2349 O   0  0  0  0  0  0  0  0  0  0  0  0
   25.4666   71.0161    1.3694 O   0  0  0  0  0  0  0  0  0  0  0  0
   22.4071   72.1975    3.8784 O   0  0  0  0  0  0  0  0  0  0  0  0
   24.8964   73.6297    3.9058 O   0  0  0  0  0  0  0  0  0  0  0  0
   21.7948   71.1249    1.2604 O   0  0  0  0  0  0  0  0  0  0  0  0
   23.2793   72.2995    2.7496 C   0  0  1  0  0  0  0  0  0  0  0  0
   24.7194   72.3713    3.2612 C   0  0  1  0  0  0  0  0  0  0  0  0
   23.0862   71.0748    1.8573 C   0  0  2  0  0  0  0  0  0  0  0  0
   25.7241   72.2136    2.1119 C   0  0  1  0  0  0  0  0  0  0  0  0
   24.1663   70.9866    0.7776 C   0  0  1  0  0  0  0  0  0  0  0  0
   22.5245   72.9724    4.4488 H   0  0  0  0  0  0  0  0  0  0  0  0
   24.2557   73.7168    4.6290 H   0  0  0  0  0  0  0  0  0  0  0  0
   21.1199   71.1802    1.9542 H   0  0  0  0  0  0  0  0  0  0  0  0
   27.5805   73.4174    3.0141 O   0  0  0  0  0  0  0  0  0  0  0  0
   27.1623   72.1242    2.6178 C   0  0  0  0  0  0  0  0  0  0  0  0
   28.4941   73.3758    3.3387 H   0  0  0  0  0  0  0  0  0  0  0  0
 25 28  1  0
 25 24  1  0
 25 26  1  6
 25 27  2  0
  1  4  1  0
  1 24  1  0
  1  2  1  1
  1  3  2  0
  6 11  1  0
  6 12  1  0
 29 36  1  0
 29 37  1  0
  9  7  1  6
  7 13  1  0
 10  8  1  6
  8 14  1  0
 37 28  1  6
  4  5  1  0
 33 30  1  1
 30 38  1  0
 34 31  1  6
 31 39  1  0
 35 32  1  6
 32 40  1  0
 41 42  1  0
 41 43  1  0
 15 19  2  0
 16 22  2  0
 12 17  1  1
 17 19  1  0
 17 20  1  0
 18 19  1  0
 18 22  1  0
 18 23  1  0
  9 10  1  0
  9 11  1  0
 10 12  1  0
 11  5  1  1
 33 34  1  0
 33 35  1  0
 34 36  1  0
 35 37  1  0
 36 42  1  1
 20 21  2  0
 21 22  1  0
M  CHG  2   2  -1  26  -1
M  END
>  <COMPND>  (185) 
    8629 

>  <AUTHOR>  (185) 
    GENERATED BY OPEN BABEL 3.1.1

>  <MASTER>  (185) 
        0    0    0    0    0    0    0    0   58    0   58    0

>  <minimizedAffinity>  (185) 
-7.16922

>  <CNNscore>  (185) 
0.6062306762

>  <CNNaffinity>  (185) 
4.4931869507

>  <CNN_VS>  (185) 
2.7239077091

>  <CNNaffinity_variance>  (185) 
0.0353400074

$$$$
186
     RDKit          3D

 43 45  0  0  0  0  0  0  0  0999 V2000
   19.8853   71.8638   -4.3203 P   0  0  2  0  0  0  0  0  0  0  0  0
   20.6011   73.3146   -4.3099 O   0  0  0  0  0  0  0  0  0  0  0  0
   20.8243   70.6936   -4.2991 O   0  0  0  0  0  0  0  0  0  0  0  0
   18.8803   71.9355   -5.5863 O   0  0  0  0  0  0  0  0  0  0  0  0
   19.3882   71.6212   -6.8713 C   0  0  0  0  0  0  0  0  0  0  0  0
   18.2653   69.6154   -6.1718 O   0  0  0  0  0  0  0  0  0  0  0  0
   17.4887   69.2707   -9.0474 O   0  0  0  0  0  0  0  0  0  0  0  0
   15.2142   70.2833   -7.9348 O   0  0  0  0  0  0  0  0  0  0  0  0
   17.6132   70.4694   -8.2839 C   0  0  1  0  0  0  0  0  0  0  0  0
   16.4480   70.6061   -7.3262 C   0  0  2  0  0  0  0  0  0  0  0  0
   18.7898   70.2989   -7.3311 C   0  0  1  0  0  0  0  0  0  0  0  0
   16.8294   69.6316   -6.2249 C   0  0  2  0  0  0  0  0  0  0  0  0
   16.7437   69.3559   -9.6636 H   0  0  0  0  0  0  0  0  0  0  0  0
   15.0160   70.9320   -8.6281 H   0  0  0  0  0  0  0  0  0  0  0  0
   17.4315   68.3233   -3.7951 O   0  0  0  0  0  0  0  0  0  0  0  0
   14.8161   71.2383   -1.3654 O   0  0  0  0  0  0  0  0  0  0  0  0
   16.3198   70.0277   -4.9424 N   0  0  0  0  0  0  0  0  0  0  0  0
   16.1289   69.7759   -2.5873 N   0  0  0  0  0  0  0  0  0  0  0  0
   16.6828   69.3025   -3.7836 C   0  0  0  0  0  0  0  0  0  0  0  0
   15.4704   71.1243   -4.8428 C   0  0  0  0  0  0  0  0  0  0  0  0
   14.9497   71.5621   -3.6945 C   0  0  0  0  0  0  0  0  0  0  0  0
   15.2790   70.8603   -2.4372 C   0  0  0  0  0  0  0  0  0  0  0  0
   16.3675   69.2861   -1.7669 H   0  0  0  0  0  0  0  0  0  0  0  0
   18.8822   71.9444   -3.0552 O   0  0  0  0  0  0  0  0  0  0  0  0
   19.1171   71.6098   -1.4913 P   0  0  2  0  0  0  0  0  0  0  0  0
   19.0992   69.9926   -1.4510 O   0  0  0  0  0  0  0  0  0  0  0  0
   18.1305   72.2632   -0.5673 O   0  0  0  0  0  0  0  0  0  0  0  0
   20.6568   72.0075   -1.2152 O   0  0  0  0  0  0  0  0  0  0  0  0
   22.6213   70.7670   -1.6824 O   0  0  0  0  0  0  0  0  0  0  0  0
   23.8249   72.6197    1.8061 O   0  0  0  0  0  0  0  0  0  0  0  0
   24.9299   73.4695   -0.7048 O   0  0  0  0  0  0  0  0  0  0  0  0
   21.1004   71.6794    1.5363 O   0  0  0  0  0  0  0  0  0  0  0  0
   23.1362   72.5150    0.5571 C   0  0  1  0  0  0  0  0  0  0  0  0
   24.1719   72.2739   -0.5429 C   0  0  1  0  0  0  0  0  0  0  0  0
   22.1471   71.3531    0.6283 C   0  0  2  0  0  0  0  0  0  0  0  0
   23.4959   71.8866   -1.8650 C   0  0  1  0  0  0  0  0  0  0  0  0
   21.5697   71.0177   -0.7480 C   0  0  1  0  0  0  0  0  0  0  0  0
   24.4541   73.3559    1.7678 H   0  0  0  0  0  0  0  0  0  0  0  0
   25.3511   73.7033    0.1373 H   0  0  0  0  0  0  0  0  0  0  0  0
   21.4789   71.8894    2.4038 H   0  0  0  0  0  0  0  0  0  0  0  0
   25.0237   72.6671   -3.5280 O   0  0  0  0  0  0  0  0  0  0  0  0
   24.5131   71.4887   -2.9324 C   0  0  0  0  0  0  0  0  0  0  0  0
   25.6727   72.4292   -4.2092 H   0  0  0  0  0  0  0  0  0  0  0  0
 25 28  1  0
 25 24  1  0
 25 26  1  6
 25 27  2  0
  1  4  1  0
  1 24  1  0
  1  2  1  6
  1  3  2  0
  6 11  1  0
  6 12  1  0
 29 36  1  0
 29 37  1  0
  9  7  1  6
  7 13  1  0
 10  8  1  6
  8 14  1  0
 37 28  1  6
  4  5  1  0
 33 30  1  1
 30 38  1  0
 34 31  1  6
 31 39  1  0
 35 32  1  1
 32 40  1  0
 41 42  1  0
 41 43  1  0
 15 19  2  0
 16 22  2  0
 12 17  1  1
 17 19  1  0
 17 20  1  0
 18 19  1  0
 18 22  1  0
 18 23  1  0
  9 10  1  0
  9 11  1  0
 10 12  1  0
 11  5  1  1
 33 34  1  0
 33 35  1  0
 34 36  1  0
 35 37  1  0
 36 42  1  6
 20 21  2  0
 21 22  1  0
M  CHG  2   2  -1  26  -1
M  END
>  <COMPND>  (186) 
    8629 

>  <AUTHOR>  (186) 
    GENERATED BY OPEN BABEL 3.1.1

>  <MASTER>  (186) 
        0    0    0    0    0    0    0    0   58    0   58    0

>  <minimizedAffinity>  (186) 
-6.49132

>  <CNNscore>  (186) 
0.6016476154

>  <CNNaffinity>  (186) 
4.4215850830

>  <CNN_VS>  (186) 
2.6602361202

>  <CNNaffinity_variance>  (186) 
0.2338053286

$$$$
187
     RDKit          3D

 43 45  0  0  0  0  0  0  0  0999 V2000
   22.0677   70.7552   -0.1765 P   0  0  2  0  0  0  0  0  0  0  0  0
   20.6516   71.4284   -0.5750 O   0  0  0  0  0  0  0  0  0  0  0  0
   21.9648   69.4656    0.5836 O   0  0  0  0  0  0  0  0  0  0  0  0
   22.8688   71.9476    0.5682 O   0  0  0  0  0  0  0  0  0  0  0  0
   23.5770   71.6462    1.7579 C   0  0  0  0  0  0  0  0  0  0  0  0
   23.4431   71.8903    4.1446 O   0  0  0  0  0  0  0  0  0  0  0  0
   20.6556   72.9004    3.6972 O   0  0  0  0  0  0  0  0  0  0  0  0
   22.0664   75.2015    4.0862 O   0  0  0  0  0  0  0  0  0  0  0  0
   21.8235   73.0927    2.9008 C   0  0  1  0  0  0  0  0  0  0  0  0
   22.7562   74.0834    3.5658 C   0  0  2  0  0  0  0  0  0  0  0  0
   22.6398   71.8070    2.9470 C   0  0  1  0  0  0  0  0  0  0  0  0
   23.3961   73.2343    4.6509 C   0  0  2  0  0  0  0  0  0  0  0  0
   20.1180   73.7084    3.6828 H   0  0  0  0  0  0  0  0  0  0  0  0
   21.6772   75.7095    3.3574 H   0  0  0  0  0  0  0  0  0  0  0  0
   24.0344   75.1629    6.6133 O   0  0  0  0  0  0  0  0  0  0  0  0
   28.5502   74.7951    5.7684 O   0  0  0  0  0  0  0  0  0  0  0  0
   24.7305   73.6612    4.9648 N   0  0  0  0  0  0  0  0  0  0  0  0
   26.2824   74.9781    6.1911 N   0  0  0  0  0  0  0  0  0  0  0  0
   24.9426   74.6366    5.9669 C   0  0  0  0  0  0  0  0  0  0  0  0
   25.8117   73.1140    4.2825 C   0  0  0  0  0  0  0  0  0  0  0  0
   27.0833   73.4514    4.5074 C   0  0  0  0  0  0  0  0  0  0  0  0
   27.3914   74.4635    5.5383 C   0  0  0  0  0  0  0  0  0  0  0  0
   26.4544   75.6559    6.8845 H   0  0  0  0  0  0  0  0  0  0  0  0
   22.8280   70.6393   -1.5982 O   0  0  0  0  0  0  0  0  0  0  0  0
   23.4280   71.7773   -2.5770 P   0  0  2  0  0  0  0  0  0  0  0  0
   24.8262   71.1360   -3.0783 O   0  0  0  0  0  0  0  0  0  0  0  0
   23.5604   73.1300   -1.9394 O   0  0  0  0  0  0  0  0  0  0  0  0
   22.4736   71.7417   -3.8781 O   0  0  0  0  0  0  0  0  0  0  0  0
   21.1766   73.5159   -4.7650 O   0  0  0  0  0  0  0  0  0  0  0  0
   18.7369   70.3432   -5.7811 O   0  0  0  0  0  0  0  0  0  0  0  0
   20.2262   71.6991   -7.8285 O   0  0  0  0  0  0  0  0  0  0  0  0
   20.1269   70.3404   -3.2420 O   0  0  0  0  0  0  0  0  0  0  0  0
   19.9823   71.0078   -5.5517 C   0  0  1  0  0  0  0  0  0  0  0  0
   20.0713   72.2018   -6.5042 C   0  0  1  0  0  0  0  0  0  0  0  0
   20.0389   71.4742   -4.0982 C   0  0  2  0  0  0  0  0  0  0  0  0
   21.2486   73.1157   -6.1385 C   0  0  1  0  0  0  0  0  0  0  0  0
   21.2186   72.4167   -3.8530 C   0  0  1  0  0  0  0  0  0  0  0  0
   18.6947   70.0442   -6.7021 H   0  0  0  0  0  0  0  0  0  0  0  0
   19.4766   71.1232   -8.0467 H   0  0  0  0  0  0  0  0  0  0  0  0
   19.3744   69.7518   -3.4067 H   0  0  0  0  0  0  0  0  0  0  0  0
   21.5138   74.0441   -8.3240 O   0  0  0  0  0  0  0  0  0  0  0  0
   21.2625   74.3931   -6.9752 C   0  0  0  0  0  0  0  0  0  0  0  0
   21.5252   74.8474   -8.8685 H   0  0  0  0  0  0  0  0  0  0  0  0
 25 28  1  0
 25 24  1  0
 25 26  1  6
 25 27  2  0
  1  4  1  0
  1 24  1  0
  1  2  1  6
  1  3  2  0
  6 11  1  0
  6 12  1  0
 29 36  1  0
 29 37  1  0
  9  7  1  1
  7 13  1  0
 10  8  1  1
  8 14  1  0
 37 28  1  6
  4  5  1  0
 33 30  1  1
 30 38  1  0
 34 31  1  6
 31 39  1  0
 35 32  1  1
 32 40  1  0
 41 42  1  0
 41 43  1  0
 15 19  2  0
 16 22  2  0
 12 17  1  6
 17 19  1  0
 17 20  1  0
 18 19  1  0
 18 22  1  0
 18 23  1  0
  9 10  1  0
  9 11  1  0
 10 12  1  0
 11  5  1  6
 33 34  1  0
 33 35  1  0
 34 36  1  0
 35 37  1  0
 36 42  1  6
 20 21  2  0
 21 22  1  0
M  CHG  2   2  -1  26  -1
M  END
>  <COMPND>  (187) 
    8629 

>  <AUTHOR>  (187) 
    GENERATED BY OPEN BABEL 3.1.1

>  <MASTER>  (187) 
        0    0    0    0    0    0    0    0   58    0   58    0

>  <minimizedAffinity>  (187) 
-6.41401

>  <CNNscore>  (187) 
0.5515129566

>  <CNNaffinity>  (187) 
4.0611543655

>  <CNN_VS>  (187) 
2.2397792339

>  <CNNaffinity_variance>  (187) 
0.1732957661

$$$$
188
     RDKit          3D

 43 45  0  0  0  0  0  0  0  0999 V2000
   23.5225   71.5706   -2.7646 P   0  0  2  0  0  0  0  0  0  0  0  0
   22.9598   72.9313   -3.4349 O   0  0  0  0  0  0  0  0  0  0  0  0
   24.9393   71.2277   -3.1201 O   0  0  0  0  0  0  0  0  0  0  0  0
   22.4123   70.4590   -3.1516 O   0  0  0  0  0  0  0  0  0  0  0  0
   21.1920   70.8936   -3.7260 C   0  0  0  0  0  0  0  0  0  0  0  0
   18.9824   71.6885   -3.2164 O   0  0  0  0  0  0  0  0  0  0  0  0
   19.3970   70.5252   -0.4840 O   0  0  0  0  0  0  0  0  0  0  0  0
   17.8488   68.6405   -1.7038 O   0  0  0  0  0  0  0  0  0  0  0  0
   19.8390   70.0363   -1.7493 C   0  0  1  0  0  0  0  0  0  0  0  0
   18.6772   69.4440   -2.5193 C   0  0  2  0  0  0  0  0  0  0  0  0
   20.2133   71.2358   -2.6111 C   0  0  1  0  0  0  0  0  0  0  0  0
   17.9683   70.6883   -3.0265 C   0  0  2  0  0  0  0  0  0  0  0  0
   19.1527   69.7772    0.0840 H   0  0  0  0  0  0  0  0  0  0  0  0
   18.3449   67.8620   -1.4064 H   0  0  0  0  0  0  0  0  0  0  0  0
   15.2518   71.2965   -3.5050 O   0  0  0  0  0  0  0  0  0  0  0  0
   15.4897   69.7854   -7.8525 O   0  0  0  0  0  0  0  0  0  0  0  0
   17.2946   70.4645   -4.2745 N   0  0  0  0  0  0  0  0  0  0  0  0
   15.3725   70.5438   -5.6694 N   0  0  0  0  0  0  0  0  0  0  0  0
   15.9283   70.8041   -4.4103 C   0  0  0  0  0  0  0  0  0  0  0  0
   17.9877   69.9144   -5.3472 C   0  0  0  0  0  0  0  0  0  0  0  0
   17.4428   69.6712   -6.5410 C   0  0  0  0  0  0  0  0  0  0  0  0
   16.0198   69.9971   -6.7662 C   0  0  0  0  0  0  0  0  0  0  0  0
   14.4218   70.7719   -5.7873 H   0  0  0  0  0  0  0  0  0  0  0  0
   23.2636   71.8086   -1.1868 O   0  0  0  0  0  0  0  0  0  0  0  0
   23.4818   70.8334    0.0837 P   0  0  2  0  0  0  0  0  0  0  0  0
   24.9765   70.2572   -0.1432 O   0  0  0  0  0  0  0  0  0  0  0  0
   22.4270   69.7760    0.2362 O   0  0  0  0  0  0  0  0  0  0  0  0
   23.6166   71.8306    1.3457 O   0  0  0  0  0  0  0  0  0  0  0  0
   25.3261   71.1608    2.8442 O   0  0  0  0  0  0  0  0  0  0  0  0
   23.5274   74.0729    5.1541 O   0  0  0  0  0  0  0  0  0  0  0  0
   26.0975   74.5826    3.9781 O   0  0  0  0  0  0  0  0  0  0  0  0
   21.9050   72.3242    3.5141 O   0  0  0  0  0  0  0  0  0  0  0  0
   23.9811   73.4688    3.9397 C   0  0  1  0  0  0  0  0  0  0  0  0
   25.4980   73.2910    4.0302 C   0  0  1  0  0  0  0  0  0  0  0  0
   23.2907   72.1173    3.7663 C   0  0  2  0  0  0  0  0  0  0  0  0
   26.0219   72.4121    2.8864 C   0  0  1  0  0  0  0  0  0  0  0  0
   23.9198   71.3028    2.6344 C   0  0  1  0  0  0  0  0  0  0  0  0
   23.9616   74.9317    5.2700 H   0  0  0  0  0  0  0  0  0  0  0  0
   25.7578   75.1276    4.7052 H   0  0  0  0  0  0  0  0  0  0  0  0
   21.5184   72.8406    4.2377 H   0  0  0  0  0  0  0  0  0  0  0  0
   28.2394   73.2996    2.9524 O   0  0  0  0  0  0  0  0  0  0  0  0
   27.5066   72.0918    3.0452 C   0  0  0  0  0  0  0  0  0  0  0  0
   29.1861   73.1111    3.0520 H   0  0  0  0  0  0  0  0  0  0  0  0
 25 28  1  0
 25 24  1  0
 25 26  1  6
 25 27  2  0
  1  4  1  0
  1 24  1  0
  1  2  1  6
  1  3  2  0
  6 11  1  0
  6 12  1  0
 29 36  1  0
 29 37  1  0
  9  7  1  1
  7 13  1  0
 10  8  1  1
  8 14  1  0
 37 28  1  6
  4  5  1  0
 33 30  1  1
 30 38  1  0
 34 31  1  6
 31 39  1  0
 35 32  1  6
 32 40  1  0
 41 42  1  0
 41 43  1  0
 15 19  2  0
 16 22  2  0
 12 17  1  6
 17 19  1  0
 17 20  1  0
 18 19  1  0
 18 22  1  0
 18 23  1  0
  9 10  1  0
  9 11  1  0
 10 12  1  0
 11  5  1  6
 33 34  1  0
 33 35  1  0
 34 36  1  0
 35 37  1  0
 36 42  1  1
 20 21  2  0
 21 22  1  0
M  CHG  2   2  -1  26  -1
M  END
>  <COMPND>  (188) 
    8629 

>  <AUTHOR>  (188) 
    GENERATED BY OPEN BABEL 3.1.1

>  <MASTER>  (188) 
        0    0    0    0    0    0    0    0   58    0   58    0

>  <minimizedAffinity>  (188) 
-7.26675

>  <CNNscore>  (188) 
0.5453049541

>  <CNNaffinity>  (188) 
4.3881616592

>  <CNN_VS>  (188) 
2.3928864002

>  <CNNaffinity_variance>  (188) 
0.0113700442

$$$$
189
     RDKit          3D

 43 45  0  0  0  0  0  0  0  0999 V2000
   23.9692   71.6938   -2.8143 P   0  0  2  0  0  0  0  0  0  0  0  0
   25.3387   70.8328   -2.7902 O   0  0  0  0  0  0  0  0  0  0  0  0
   23.8243   72.6214   -3.9847 O   0  0  0  0  0  0  0  0  0  0  0  0
   23.9233   72.3913   -1.3551 O   0  0  0  0  0  0  0  0  0  0  0  0
   24.8653   71.9806   -0.3794 C   0  0  0  0  0  0  0  0  0  0  0  0
   24.9236   70.8582    1.7444 O   0  0  0  0  0  0  0  0  0  0  0  0
   22.1931   69.8240    1.0620 O   0  0  0  0  0  0  0  0  0  0  0  0
   21.6415   71.8743    2.7733 O   0  0  0  0  0  0  0  0  0  0  0  0
   22.7762   71.0929    0.7700 C   0  0  1  0  0  0  0  0  0  0  0  0
   22.8356   71.9447    2.0208 C   0  0  2  0  0  0  0  0  0  0  0  0
   24.2526   70.8719    0.4654 C   0  0  1  0  0  0  0  0  0  0  0  0
   24.0244   71.3463    2.7534 C   0  0  2  0  0  0  0  0  0  0  0  0
   21.2499   69.9396    1.2595 H   0  0  0  0  0  0  0  0  0  0  0  0
   20.9151   72.2674    2.2648 H   0  0  0  0  0  0  0  0  0  0  0  0
   23.1011   72.2793    5.2544 O   0  0  0  0  0  0  0  0  0  0  0  0
   26.7439   75.0552    5.7696 O   0  0  0  0  0  0  0  0  0  0  0  0
   24.7119   72.3125    3.5628 N   0  0  0  0  0  0  0  0  0  0  0  0
   24.9158   73.6606    5.5090 N   0  0  0  0  0  0  0  0  0  0  0  0
   24.1623   72.7145    4.8025 C   0  0  0  0  0  0  0  0  0  0  0  0
   25.9173   72.8508    3.1257 C   0  0  0  0  0  0  0  0  0  0  0  0
   26.6229   73.7531    3.8106 C   0  0  0  0  0  0  0  0  0  0  0  0
   26.1184   74.2262    5.1159 C   0  0  0  0  0  0  0  0  0  0  0  0
   24.5522   73.9558    6.3753 H   0  0  0  0  0  0  0  0  0  0  0  0
   22.8239   70.5579   -2.7102 O   0  0  0  0  0  0  0  0  0  0  0  0
   21.2115   70.6711   -2.7311 P   0  0  2  0  0  0  0  0  0  0  0  0
   20.9293   72.0848   -1.9968 O   0  0  0  0  0  0  0  0  0  0  0  0
   20.5044   69.5000   -2.1127 O   0  0  0  0  0  0  0  0  0  0  0  0
   20.8406   70.9349   -4.2796 O   0  0  0  0  0  0  0  0  0  0  0  0
   20.8412   73.1126   -5.2146 O   0  0  0  0  0  0  0  0  0  0  0  0
   18.2274   71.2728   -7.8288 O   0  0  0  0  0  0  0  0  0  0  0  0
   20.8766   71.9448   -8.7109 O   0  0  0  0  0  0  0  0  0  0  0  0
   18.1495   70.6188   -5.0100 O   0  0  0  0  0  0  0  0  0  0  0  0
   19.3598   71.3523   -6.9590 C   0  0  1  0  0  0  0  0  0  0  0  0
   20.3045   72.4280   -7.4986 C   0  0  1  0  0  0  0  0  0  0  0  0
   18.8845   71.7107   -5.5522 C   0  0  2  0  0  0  0  0  0  0  0  0
   21.4059   72.7585   -6.4824 C   0  0  1  0  0  0  0  0  0  0  0  0
   20.0549   72.0697   -4.6349 C   0  0  1  0  0  0  0  0  0  0  0  0
   18.5222   71.0450   -8.7236 H   0  0  0  0  0  0  0  0  0  0  0  0
   20.1705   71.7395   -9.3437 H   0  0  0  0  0  0  0  0  0  0  0  0
   17.4113   70.4015   -5.5996 H   0  0  0  0  0  0  0  0  0  0  0  0
   23.1714   73.4823   -7.9206 O   0  0  0  0  0  0  0  0  0  0  0  0
   22.2648   73.9379   -6.9332 C   0  0  0  0  0  0  0  0  0  0  0  0
   23.7244   74.2224   -8.2171 H   0  0  0  0  0  0  0  0  0  0  0  0
 25 28  1  0
 25 24  1  0
 25 26  1  1
 25 27  2  0
  1  4  1  0
  1 24  1  0
  1  2  1  6
  1  3  2  0
  6 11  1  0
  6 12  1  0
 29 36  1  0
 29 37  1  0
  9  7  1  1
  7 13  1  0
 10  8  1  1
  8 14  1  0
 37 28  1  6
  4  5  1  0
 33 30  1  6
 30 38  1  0
 34 31  1  6
 31 39  1  0
 35 32  1  1
 32 40  1  0
 41 42  1  0
 41 43  1  0
 15 19  2  0
 16 22  2  0
 12 17  1  6
 17 19  1  0
 17 20  1  0
 18 19  1  0
 18 22  1  0
 18 23  1  0
  9 10  1  0
  9 11  1  0
 10 12  1  0
 11  5  1  6
 33 34  1  0
 33 35  1  0
 34 36  1  0
 35 37  1  0
 36 42  1  6
 20 21  2  0
 21 22  1  0
M  CHG  2   2  -1  26  -1
M  END
>  <COMPND>  (189) 
    8629 

>  <AUTHOR>  (189) 
    GENERATED BY OPEN BABEL 3.1.1

>  <MASTER>  (189) 
        0    0    0    0    0    0    0    0   58    0   58    0

>  <minimizedAffinity>  (189) 
-7.40673

>  <CNNscore>  (189) 
0.5136185884

>  <CNNaffinity>  (189) 
4.1875772476

>  <CNN_VS>  (189) 
2.1508176327

>  <CNNaffinity_variance>  (189) 
0.1440753490

$$$$
190
     RDKit          3D

 43 45  0  0  0  0  0  0  0  0999 V2000
   21.5364   74.1278   -3.1092 P   0  0  2  0  0  0  0  0  0  0  0  0
   22.9645   74.1208   -3.8694 O   0  0  0  0  0  0  0  0  0  0  0  0
   21.0383   75.4853   -2.7086 O   0  0  0  0  0  0  0  0  0  0  0  0
   21.7333   73.0675   -1.9030 O   0  0  0  0  0  0  0  0  0  0  0  0
   22.5331   73.4440   -0.7956 C   0  0  0  0  0  0  0  0  0  0  0  0
   24.7120   73.2147    0.1910 O   0  0  0  0  0  0  0  0  0  0  0  0
   25.0819   70.8595   -1.6275 O   0  0  0  0  0  0  0  0  0  0  0  0
   24.4758   69.6808    0.7558 O   0  0  0  0  0  0  0  0  0  0  0  0
   23.9037   71.3068   -0.9589 C   0  0  1  0  0  0  0  0  0  0  0  0
   23.9827   70.9837    0.5186 C   0  0  2  0  0  0  0  0  0  0  0  0
   23.9176   72.8303   -0.9524 C   0  0  1  0  0  0  0  0  0  0  0  0
   24.9201   72.0653    1.0280 C   0  0  2  0  0  0  0  0  0  0  0  0
   25.0952   69.8892   -1.6444 H   0  0  0  0  0  0  0  0  0  0  0  0
   23.8445   69.0287    0.4139 H   0  0  0  0  0  0  0  0  0  0  0  0
   26.8217   73.1918    2.7866 O   0  0  0  0  0  0  0  0  0  0  0  0
   23.7736   73.4085    6.2367 O   0  0  0  0  0  0  0  0  0  0  0  0
   24.6504   72.4262    2.3912 N   0  0  0  0  0  0  0  0  0  0  0  0
   25.3024   73.2990    4.5030 N   0  0  0  0  0  0  0  0  0  0  0  0
   25.6755   72.9843    3.1901 C   0  0  0  0  0  0  0  0  0  0  0  0
   23.3810   72.2264    2.9229 C   0  0  0  0  0  0  0  0  0  0  0  0
   23.0417   72.5307    4.1773 C   0  0  0  0  0  0  0  0  0  0  0  0
   24.0545   73.1180    5.0780 C   0  0  0  0  0  0  0  0  0  0  0  0
   26.0004   73.6886    5.0782 H   0  0  0  0  0  0  0  0  0  0  0  0
   20.5737   73.3343   -4.1370 O   0  0  0  0  0  0  0  0  0  0  0  0
   19.0884   72.7257   -3.9455 P   0  0  2  0  0  0  0  0  0  0  0  0
   18.1671   74.0440   -3.7699 O   0  0  0  0  0  0  0  0  0  0  0  0
   18.9697   71.7336   -2.8250 O   0  0  0  0  0  0  0  0  0  0  0  0
   18.6948   72.1440   -5.3986 O   0  0  0  0  0  0  0  0  0  0  0  0
   18.1410   69.8553   -5.1306 O   0  0  0  0  0  0  0  0  0  0  0  0
   17.8118   70.1373   -9.2370 O   0  0  0  0  0  0  0  0  0  0  0  0
   15.4386   69.8983   -7.6374 O   0  0  0  0  0  0  0  0  0  0  0  0
   19.9189   71.5630   -7.8561 O   0  0  0  0  0  0  0  0  0  0  0  0
   17.7118   70.5990   -7.8871 C   0  0  1  0  0  0  0  0  0  0  0  0
   16.7528   69.6749   -7.1340 C   0  0  1  0  0  0  0  0  0  0  0  0
   19.0983   70.5723   -7.2465 C   0  0  2  0  0  0  0  0  0  0  0  0
   16.7988   69.9412   -5.6234 C   0  0  1  0  0  0  0  0  0  0  0  0
   19.0267   70.7995   -5.7354 C   0  0  1  0  0  0  0  0  0  0  0  0
   16.9349   70.1522   -9.6497 H   0  0  0  0  0  0  0  0  0  0  0  0
   15.4234   69.7273   -8.5922 H   0  0  0  0  0  0  0  0  0  0  0  0
   19.9564   71.4080   -8.8123 H   0  0  0  0  0  0  0  0  0  0  0  0
   16.1055   67.6607   -5.4567 O   0  0  0  0  0  0  0  0  0  0  0  0
   15.9696   68.9270   -4.8384 C   0  0  0  0  0  0  0  0  0  0  0  0
   15.5833   67.0051   -4.9676 H   0  0  0  0  0  0  0  0  0  0  0  0
 25 28  1  0
 25 24  1  0
 25 26  1  1
 25 27  2  0
  1  4  1  0
  1 24  1  0
  1  2  1  6
  1  3  2  0
  6 11  1  0
  6 12  1  0
 29 36  1  0
 29 37  1  0
  9  7  1  6
  7 13  1  0
 10  8  1  6
  8 14  1  0
 37 28  1  6
  4  5  1  0
 33 30  1  6
 30 38  1  0
 34 31  1  6
 31 39  1  0
 35 32  1  6
 32 40  1  0
 41 42  1  0
 41 43  1  0
 15 19  2  0
 16 22  2  0
 12 17  1  1
 17 19  1  0
 17 20  1  0
 18 19  1  0
 18 22  1  0
 18 23  1  0
  9 10  1  0
  9 11  1  0
 10 12  1  0
 11  5  1  1
 33 34  1  0
 33 35  1  0
 34 36  1  0
 35 37  1  0
 36 42  1  1
 20 21  2  0
 21 22  1  0
M  CHG  2   2  -1  26  -1
M  END
>  <COMPND>  (190) 
    8629 

>  <AUTHOR>  (190) 
    GENERATED BY OPEN BABEL 3.1.1

>  <MASTER>  (190) 
        0    0    0    0    0    0    0    0   58    0   58    0

>  <minimizedAffinity>  (190) 
-7.18051

>  <CNNscore>  (190) 
0.4897434711

>  <CNNaffinity>  (190) 
4.3212385178

>  <CNN_VS>  (190) 
2.1162984371

>  <CNNaffinity_variance>  (190) 
0.3851135075

$$$$
191
     RDKit          3D

 43 45  0  0  0  0  0  0  0  0999 V2000
   24.0549   71.7825   -2.0286 P   0  0  2  0  0  0  0  0  0  0  0  0
   24.6367   72.2504   -0.5933 O   0  0  0  0  0  0  0  0  0  0  0  0
   24.9649   70.8908   -2.8212 O   0  0  0  0  0  0  0  0  0  0  0  0
   23.6301   73.1690   -2.7462 O   0  0  0  0  0  0  0  0  0  0  0  0
   22.5818   73.1435   -3.6993 C   0  0  0  0  0  0  0  0  0  0  0  0
   22.4756   71.6252   -5.5587 O   0  0  0  0  0  0  0  0  0  0  0  0
   23.9295   73.7315   -7.1208 O   0  0  0  0  0  0  0  0  0  0  0  0
   21.3492   74.0587   -7.9403 O   0  0  0  0  0  0  0  0  0  0  0  0
   22.9370   73.8839   -6.1074 C   0  0  1  0  0  0  0  0  0  0  0  0
   21.5703   73.5234   -6.6514 C   0  0  2  0  0  0  0  0  0  0  0  0
   23.1610   72.7965   -5.0640 C   0  0  1  0  0  0  0  0  0  0  0  0
   21.6210   72.0050   -6.6497 C   0  0  2  0  0  0  0  0  0  0  0  0
   23.8070   74.4154   -7.7985 H   0  0  0  0  0  0  0  0  0  0  0  0
   21.3252   75.0270   -7.8887 H   0  0  0  0  0  0  0  0  0  0  0  0
   20.8703   69.4572   -7.6103 O   0  0  0  0  0  0  0  0  0  0  0  0
   16.6289   69.8404   -5.8483 O   0  0  0  0  0  0  0  0  0  0  0  0
   20.3269   71.4141   -6.4560 N   0  0  0  0  0  0  0  0  0  0  0  0
   18.7591   69.6500   -6.7320 N   0  0  0  0  0  0  0  0  0  0  0  0
   20.0516   70.1295   -6.9799 C   0  0  0  0  0  0  0  0  0  0  0  0
   19.3471   72.1066   -5.7531 C   0  0  0  0  0  0  0  0  0  0  0  0
   18.1189   71.6359   -5.5265 C   0  0  0  0  0  0  0  0  0  0  0  0
   17.7501   70.3009   -6.0401 C   0  0  0  0  0  0  0  0  0  0  0  0
   18.5444   68.7572   -7.0879 H   0  0  0  0  0  0  0  0  0  0  0  0
   22.6309   71.1206   -1.6452 O   0  0  0  0  0  0  0  0  0  0  0  0
   21.8877   70.9527   -0.2196 P   0  0  2  0  0  0  0  0  0  0  0  0
   22.0691   72.4064    0.4669 O   0  0  0  0  0  0  0  0  0  0  0  0
   22.3969   69.8088    0.6088 O   0  0  0  0  0  0  0  0  0  0  0  0
   20.3179   70.8674   -0.5847 O   0  0  0  0  0  0  0  0  0  0  0  0
   19.0098   70.2432   -2.4598 O   0  0  0  0  0  0  0  0  0  0  0  0
   17.1708   73.8227   -1.5344 O   0  0  0  0  0  0  0  0  0  0  0  0
   15.8165   71.3498   -0.9876 O   0  0  0  0  0  0  0  0  0  0  0  0
   20.0441   73.5698   -1.2895 O   0  0  0  0  0  0  0  0  0  0  0  0
   17.8431   72.5922   -1.2527 C   0  0  1  0  0  0  0  0  0  0  0  0
   16.9882   71.4441   -1.7929 C   0  0  1  0  0  0  0  0  0  0  0  0
   19.2133   72.6061   -1.9279 C   0  0  2  0  0  0  0  0  0  0  0  0
   17.7614   70.1187   -1.7685 C   0  0  1  0  0  0  0  0  0  0  0  0
   19.8753   71.2275   -1.8907 C   0  0  1  0  0  0  0  0  0  0  0  0
   16.3003   73.8205   -1.1081 H   0  0  0  0  0  0  0  0  0  0  0  0
   15.3377   72.1933   -1.0112 H   0  0  0  0  0  0  0  0  0  0  0  0
   19.6140   74.4382   -1.3200 H   0  0  0  0  0  0  0  0  0  0  0  0
   15.8708   69.5524   -3.1153 O   0  0  0  0  0  0  0  0  0  0  0  0
   16.9861   68.9917   -2.4474 C   0  0  0  0  0  0  0  0  0  0  0  0
   15.3681   68.8467   -3.5524 H   0  0  0  0  0  0  0  0  0  0  0  0
 25 28  1  0
 25 24  1  0
 25 26  1  1
 25 27  2  0
  1  4  1  0
  1 24  1  0
  1  2  1  1
  1  3  2  0
  6 11  1  0
  6 12  1  0
 29 36  1  0
 29 37  1  0
  9  7  1  6
  7 13  1  0
 10  8  1  6
  8 14  1  0
 37 28  1  1
  4  5  1  0
 33 30  1  6
 30 38  1  0
 34 31  1  1
 31 39  1  0
 35 32  1  1
 32 40  1  0
 41 42  1  0
 41 43  1  0
 15 19  2  0
 16 22  2  0
 12 17  1  1
 17 19  1  0
 17 20  1  0
 18 19  1  0
 18 22  1  0
 18 23  1  0
  9 10  1  0
  9 11  1  0
 10 12  1  0
 11  5  1  1
 33 34  1  0
 33 35  1  0
 34 36  1  0
 35 37  1  0
 36 42  1  6
 20 21  2  0
 21 22  1  0
M  CHG  2   2  -1  26  -1
M  END
>  <COMPND>  (191) 
    8629 

>  <AUTHOR>  (191) 
    GENERATED BY OPEN BABEL 3.1.1

>  <MASTER>  (191) 
        0    0    0    0    0    0    0    0   58    0   58    0

>  <minimizedAffinity>  (191) 
-6.18077

>  <CNNscore>  (191) 
0.4477576315

>  <CNNaffinity>  (191) 
3.9497978687

>  <CNN_VS>  (191) 
1.7685521841

>  <CNNaffinity_variance>  (191) 
0.6542034149

$$$$
192
     RDKit          3D

 43 45  0  0  0  0  0  0  0  0999 V2000
   21.1650   70.5250   -0.5036 P   0  0  2  0  0  0  0  0  0  0  0  0
   21.8406   69.5093    0.5590 O   0  0  0  0  0  0  0  0  0  0  0  0
   20.8684   71.8956    0.0301 O   0  0  0  0  0  0  0  0  0  0  0  0
   19.8934   69.7023   -1.0729 O   0  0  0  0  0  0  0  0  0  0  0  0
   19.4104   70.0151   -2.3678 C   0  0  0  0  0  0  0  0  0  0  0  0
   17.9644   71.5422   -3.5301 O   0  0  0  0  0  0  0  0  0  0  0  0
   16.0484   71.1667   -1.2544 O   0  0  0  0  0  0  0  0  0  0  0  0
   14.9991   69.5542   -3.1871 O   0  0  0  0  0  0  0  0  0  0  0  0
   16.9255   70.2190   -1.8611 C   0  0  1  0  0  0  0  0  0  0  0  0
   16.3906   69.7986   -3.2141 C   0  0  2  0  0  0  0  0  0  0  0  0
   18.2112   70.9442   -2.2386 C   0  0  1  0  0  0  0  0  0  0  0  0
   16.7582   70.9900   -4.0823 C   0  0  2  0  0  0  0  0  0  0  0  0
   15.2203   70.7266   -1.0043 H   0  0  0  0  0  0  0  0  0  0  0  0
   14.8163   68.7873   -2.6221 H   0  0  0  0  0  0  0  0  0  0  0  0
   16.2133   72.6459   -6.3047 O   0  0  0  0  0  0  0  0  0  0  0  0
   17.7169   69.4613   -9.2778 O   0  0  0  0  0  0  0  0  0  0  0  0
   16.9979   70.6190   -5.4484 N   0  0  0  0  0  0  0  0  0  0  0  0
   16.9626   71.0590   -7.7833 N   0  0  0  0  0  0  0  0  0  0  0  0
   16.6883   71.5236   -6.4906 C   0  0  0  0  0  0  0  0  0  0  0  0
   17.5345   69.3704   -5.7434 C   0  0  0  0  0  0  0  0  0  0  0  0
   17.7889   68.9420   -6.9816 C   0  0  0  0  0  0  0  0  0  0  0  0
   17.4943   69.8263   -8.1275 C   0  0  0  0  0  0  0  0  0  0  0  0
   16.7546   71.6720   -8.5253 H   0  0  0  0  0  0  0  0  0  0  0  0
   22.2014   70.4958   -1.7438 O   0  0  0  0  0  0  0  0  0  0  0  0
   22.9740   71.6912   -2.5100 P   0  0  2  0  0  0  0  0  0  0  0  0
   24.3124   70.9718   -3.0656 O   0  0  0  0  0  0  0  0  0  0  0  0
   23.2291   72.9027   -1.6608 O   0  0  0  0  0  0  0  0  0  0  0  0
   22.0857   71.9731   -3.8278 O   0  0  0  0  0  0  0  0  0  0  0  0
   22.4265   71.8414   -6.1694 O   0  0  0  0  0  0  0  0  0  0  0  0
   20.5905   75.5350   -5.9765 O   0  0  0  0  0  0  0  0  0  0  0  0
   19.1494   73.2889   -7.0379 O   0  0  0  0  0  0  0  0  0  0  0  0
   22.4753   74.7505   -3.9243 O   0  0  0  0  0  0  0  0  0  0  0  0
   20.8338   74.1792   -5.5918 C   0  0  1  0  0  0  0  0  0  0  0  0
   20.5540   73.2808   -6.7981 C   0  0  1  0  0  0  0  0  0  0  0  0
   22.2876   74.0406   -5.1439 C   0  0  2  0  0  0  0  0  0  0  0  0
   21.0451   71.8485   -6.5479 C   0  0  1  0  0  0  0  0  0  0  0  0
   22.6880   72.5744   -4.9710 C   0  0  1  0  0  0  0  0  0  0  0  0
   19.6690   75.6299   -6.2616 H   0  0  0  0  0  0  0  0  0  0  0  0
   18.8521   74.1991   -7.1938 H   0  0  0  0  0  0  0  0  0  0  0  0
   22.2186   75.6773   -4.0470 H   0  0  0  0  0  0  0  0  0  0  0  0
   21.2264   69.6392   -7.4395 O   0  0  0  0  0  0  0  0  0  0  0  0
   20.9196   70.9750   -7.7942 C   0  0  0  0  0  0  0  0  0  0  0  0
   21.1504   69.0716   -8.2229 H   0  0  0  0  0  0  0  0  0  0  0  0
 25 28  1  0
 25 24  1  0
 25 26  1  6
 25 27  2  0
  1  4  1  0
  1 24  1  0
  1  2  1  1
  1  3  2  0
  6 11  1  0
  6 12  1  0
 29 36  1  0
 29 37  1  0
  9  7  1  6
  7 13  1  0
 10  8  1  1
  8 14  1  0
 37 28  1  1
  4  5  1  0
 33 30  1  6
 30 38  1  0
 34 31  1  1
 31 39  1  0
 35 32  1  1
 32 40  1  0
 41 42  1  0
 41 43  1  0
 15 19  2  0
 16 22  2  0
 12 17  1  6
 17 19  1  0
 17 20  1  0
 18 19  1  0
 18 22  1  0
 18 23  1  0
  9 10  1  0
  9 11  1  0
 10 12  1  0
 11  5  1  6
 33 34  1  0
 33 35  1  0
 34 36  1  0
 35 37  1  0
 36 42  1  6
 20 21  2  0
 21 22  1  0
M  CHG  2   2  -1  26  -1
M  END
>  <COMPND>  (192) 
    8629 

>  <AUTHOR>  (192) 
    GENERATED BY OPEN BABEL 3.1.1

>  <MASTER>  (192) 
        0    0    0    0    0    0    0    0   58    0   58    0

>  <minimizedAffinity>  (192) 
-7.56228

>  <CNNscore>  (192) 
0.4359045029

>  <CNNaffinity>  (192) 
4.0284833908

>  <CNN_VS>  (192) 
1.7560340166

>  <CNNaffinity_variance>  (192) 
0.9158719778

$$$$
193
     RDKit          3D

 43 45  0  0  0  0  0  0  0  0999 V2000
   22.9882   73.3772   -4.9245 P   0  0  2  0  0  0  0  0  0  0  0  0
   23.0482   74.9921   -4.8469 O   0  0  0  0  0  0  0  0  0  0  0  0
   23.7468   72.7691   -6.0674 O   0  0  0  0  0  0  0  0  0  0  0  0
   21.4056   73.0446   -4.8755 O   0  0  0  0  0  0  0  0  0  0  0  0
   20.7629   72.6373   -6.0709 C   0  0  0  0  0  0  0  0  0  0  0  0
   19.7817   70.6128   -5.2268 O   0  0  0  0  0  0  0  0  0  0  0  0
   20.9312   69.2676   -7.6475 O   0  0  0  0  0  0  0  0  0  0  0  0
   18.3152   69.6039   -8.3403 O   0  0  0  0  0  0  0  0  0  0  0  0
   20.3850   70.5792   -7.5182 C   0  0  1  0  0  0  0  0  0  0  0  0
   18.8756   70.5124   -7.4143 C   0  0  2  0  0  0  0  0  0  0  0  0
   20.7747   71.1167   -6.1468 C   0  0  1  0  0  0  0  0  0  0  0  0
   18.6780   70.0745   -5.9730 C   0  0  2  0  0  0  0  0  0  0  0  0
   20.6957   68.9037   -8.5159 H   0  0  0  0  0  0  0  0  0  0  0  0
   18.4669   69.9266   -9.2423 H   0  0  0  0  0  0  0  0  0  0  0  0
   16.7200   68.4554   -4.7391 O   0  0  0  0  0  0  0  0  0  0  0  0
   14.0112   72.0799   -3.8638 O   0  0  0  0  0  0  0  0  0  0  0  0
   17.4516   70.5689   -5.4136 N   0  0  0  0  0  0  0  0  0  0  0  0
   15.3729   70.2615   -4.3041 N   0  0  0  0  0  0  0  0  0  0  0  0
   16.5351   69.6716   -4.8175 C   0  0  0  0  0  0  0  0  0  0  0  0
   17.1680   71.9295   -5.4592 C   0  0  0  0  0  0  0  0  0  0  0  0
   16.0546   72.4760   -4.9662 C   0  0  0  0  0  0  0  0  0  0  0  0
   15.0451   71.6078   -4.3265 C   0  0  0  0  0  0  0  0  0  0  0  0
   14.7197   69.6557   -3.8844 H   0  0  0  0  0  0  0  0  0  0  0  0
   23.5004   72.9236   -3.4600 O   0  0  0  0  0  0  0  0  0  0  0  0
   23.5536   71.4687   -2.7576 P   0  0  2  0  0  0  0  0  0  0  0  0
   25.1209   71.0752   -2.8376 O   0  0  0  0  0  0  0  0  0  0  0  0
   22.6289   70.4562   -3.3687 O   0  0  0  0  0  0  0  0  0  0  0  0
   23.2860   71.7605   -1.1929 O   0  0  0  0  0  0  0  0  0  0  0  0
   23.7680   73.5742    0.2544 O   0  0  0  0  0  0  0  0  0  0  0  0
   24.7998   70.4483    2.7475 O   0  0  0  0  0  0  0  0  0  0  0  0
   22.3993   71.9388    3.2613 O   0  0  0  0  0  0  0  0  0  0  0  0
   25.4095   70.3031   -0.0786 O   0  0  0  0  0  0  0  0  0  0  0  0
   24.0398   71.1084    1.7316 C   0  0  1  0  0  0  0  0  0  0  0  0
   23.4052   72.3588    2.3436 C   0  0  1  0  0  0  0  0  0  0  0  0
   24.9688   71.4861    0.5793 C   0  0  2  0  0  0  0  0  0  0  0  0
   22.7973   73.2588    1.2594 C   0  0  1  0  0  0  0  0  0  0  0  0
   24.2816   72.4220   -0.4167 C   0  0  1  0  0  0  0  0  0  0  0  0
   24.2157   70.2054    3.4819 H   0  0  0  0  0  0  0  0  0  0  0  0
   22.7962   71.3709    3.9404 H   0  0  0  0  0  0  0  0  0  0  0  0
   25.8430   69.7191    0.5625 H   0  0  0  0  0  0  0  0  0  0  0  0
   21.0598   74.3586    2.4762 O   0  0  0  0  0  0  0  0  0  0  0  0
   22.2990   74.5848    1.8300 C   0  0  0  0  0  0  0  0  0  0  0  0
   20.7307   75.1939    2.8445 H   0  0  0  0  0  0  0  0  0  0  0  0
 25 28  1  0
 25 24  1  0
 25 26  1  1
 25 27  2  0
  1  4  1  0
  1 24  1  0
  1  2  1  1
  1  3  2  0
  6 11  1  0
  6 12  1  0
 29 36  1  0
 29 37  1  0
  9  7  1  1
  7 13  1  0
 10  8  1  6
  8 14  1  0
 37 28  1  1
  4  5  1  0
 33 30  1  1
 30 38  1  0
 34 31  1  1
 31 39  1  0
 35 32  1  6
 32 40  1  0
 41 42  1  0
 41 43  1  0
 15 19  2  0
 16 22  2  0
 12 17  1  1
 17 19  1  0
 17 20  1  0
 18 19  1  0
 18 22  1  0
 18 23  1  0
  9 10  1  0
  9 11  1  0
 10 12  1  0
 11  5  1  6
 33 34  1  0
 33 35  1  0
 34 36  1  0
 35 37  1  0
 36 42  1  1
 20 21  2  0
 21 22  1  0
M  CHG  2   2  -1  26  -1
M  END
>  <COMPND>  (193) 
    8629 

>  <AUTHOR>  (193) 
    GENERATED BY OPEN BABEL 3.1.1

>  <MASTER>  (193) 
        0    0    0    0    0    0    0    0   58    0   58    0

>  <minimizedAffinity>  (193) 
-7.51562

>  <CNNscore>  (193) 
0.4316592216

>  <CNNaffinity>  (193) 
4.3581376076

>  <CNN_VS>  (193) 
1.8812302351

>  <CNNaffinity_variance>  (193) 
0.0805215985

$$$$
194
     RDKit          3D

 43 45  0  0  0  0  0  0  0  0999 V2000
   17.7648   70.0499   -2.2418 P   0  0  2  0  0  0  0  0  0  0  0  0
   17.3033   68.5672   -1.7880 O   0  0  0  0  0  0  0  0  0  0  0  0
   16.8921   71.1650   -1.7454 O   0  0  0  0  0  0  0  0  0  0  0  0
   17.9129   69.9358   -3.8490 O   0  0  0  0  0  0  0  0  0  0  0  0
   16.9922   69.1239   -4.5568 C   0  0  0  0  0  0  0  0  0  0  0  0
   16.9938   71.2096   -5.7501 O   0  0  0  0  0  0  0  0  0  0  0  0
   15.0463   69.9204   -7.6305 O   0  0  0  0  0  0  0  0  0  0  0  0
   17.3963   69.7565   -9.0042 O   0  0  0  0  0  0  0  0  0  0  0  0
   16.1607   69.3443   -6.9512 C   0  0  1  0  0  0  0  0  0  0  0  0
   17.4570   69.7932   -7.5929 C   0  0  2  0  0  0  0  0  0  0  0  0
   16.2508   69.9838   -5.5713 C   0  0  1  0  0  0  0  0  0  0  0  0
   17.6048   71.2047   -7.0507 C   0  0  2  0  0  0  0  0  0  0  0  0
   14.9681   69.5272   -8.5144 H   0  0  0  0  0  0  0  0  0  0  0  0
   17.3024   68.8376   -9.3002 H   0  0  0  0  0  0  0  0  0  0  0  0
   18.4643   73.8538   -6.5801 O   0  0  0  0  0  0  0  0  0  0  0  0
   22.9015   72.6077   -6.5757 O   0  0  0  0  0  0  0  0  0  0  0  0
   18.9788   71.6009   -6.9218 N   0  0  0  0  0  0  0  0  0  0  0  0
   20.6730   73.2311   -6.5781 N   0  0  0  0  0  0  0  0  0  0  0  0
   19.3036   72.9573   -6.6873 C   0  0  0  0  0  0  0  0  0  0  0  0
   19.9872   70.6492   -7.0277 C   0  0  0  0  0  0  0  0  0  0  0  0
   21.2884   70.9268   -6.9225 C   0  0  0  0  0  0  0  0  0  0  0  0
   21.7128   72.3203   -6.6773 C   0  0  0  0  0  0  0  0  0  0  0  0
   20.9231   74.1695   -6.4151 H   0  0  0  0  0  0  0  0  0  0  0  0
   19.2996   70.1224   -1.7398 O   0  0  0  0  0  0  0  0  0  0  0  0
   20.5369   71.0366   -2.2363 P   0  0  2  0  0  0  0  0  0  0  0  0
   19.8981   72.5216   -2.3017 O   0  0  0  0  0  0  0  0  0  0  0  0
   21.1663   70.5761   -3.5191 O   0  0  0  0  0  0  0  0  0  0  0  0
   21.5436   71.0811   -0.9755 O   0  0  0  0  0  0  0  0  0  0  0  0
   22.5265   72.7912    0.3382 O   0  0  0  0  0  0  0  0  0  0  0  0
   25.8518   70.4135   -0.2447 O   0  0  0  0  0  0  0  0  0  0  0  0
   24.5978   70.4892    2.3380 O   0  0  0  0  0  0  0  0  0  0  0  0
   23.9474   70.7844   -2.3930 O   0  0  0  0  0  0  0  0  0  0  0  0
   24.4619   70.6828   -0.0422 C   0  0  1  0  0  0  0  0  0  0  0  0
   24.3044   71.4127    1.2932 C   0  0  1  0  0  0  0  0  0  0  0  0
   23.9484   71.5480   -1.1916 C   0  0  2  0  0  0  0  0  0  0  0  0
   22.8837   71.9698    1.4559 C   0  0  1  0  0  0  0  0  0  0  0  0
   22.5469   72.0911   -0.9073 C   0  0  1  0  0  0  0  0  0  0  0  0
   26.1839   69.8641    0.4815 H   0  0  0  0  0  0  0  0  0  0  0  0
   25.4974   70.1445    2.2233 H   0  0  0  0  0  0  0  0  0  0  0  0
   24.8402   70.4465   -2.5620 H   0  0  0  0  0  0  0  0  0  0  0  0
   22.6603   71.9841    3.8347 O   0  0  0  0  0  0  0  0  0  0  0  0
   22.7486   72.8352    2.7068 C   0  0  0  0  0  0  0  0  0  0  0  0
   22.5742   72.5212    4.6384 H   0  0  0  0  0  0  0  0  0  0  0  0
 25 28  1  0
 25 24  1  0
 25 26  1  6
 25 27  2  0
  1  4  1  0
  1 24  1  0
  1  2  1  1
  1  3  2  0
  6 11  1  0
  6 12  1  0
 29 36  1  0
 29 37  1  0
  9  7  1  6
  7 13  1  0
 10  8  1  6
  8 14  1  0
 37 28  1  1
  4  5  1  0
 33 30  1  6
 30 38  1  0
 34 31  1  1
 31 39  1  0
 35 32  1  6
 32 40  1  0
 41 42  1  0
 41 43  1  0
 15 19  2  0
 16 22  2  0
 12 17  1  1
 17 19  1  0
 17 20  1  0
 18 19  1  0
 18 22  1  0
 18 23  1  0
  9 10  1  0
  9 11  1  0
 10 12  1  0
 11  5  1  1
 33 34  1  0
 33 35  1  0
 34 36  1  0
 35 37  1  0
 36 42  1  1
 20 21  2  0
 21 22  1  0
M  CHG  2   2  -1  26  -1
M  END
>  <COMPND>  (194) 
    8629 

>  <AUTHOR>  (194) 
    GENERATED BY OPEN BABEL 3.1.1

>  <MASTER>  (194) 
        0    0    0    0    0    0    0    0   58    0   58    0

>  <minimizedAffinity>  (194) 
-7.95666

>  <CNNscore>  (194) 
0.4242148399

>  <CNNaffinity>  (194) 
4.2012581825

>  <CNN_VS>  (194) 
1.7822360992

>  <CNNaffinity_variance>  (194) 
0.7222928405

$$$$
195
     RDKit          3D

 43 45  0  0  0  0  0  0  0  0999 V2000
   24.4487   71.1785   -0.0390 P   0  0  2  0  0  0  0  0  0  0  0  0
   25.7690   70.2959   -0.3474 O   0  0  0  0  0  0  0  0  0  0  0  0
   24.6315   72.6615   -0.1759 O   0  0  0  0  0  0  0  0  0  0  0  0
   23.9669   70.6613    1.4164 O   0  0  0  0  0  0  0  0  0  0  0  0
   24.4649   71.3211    2.5673 C   0  0  0  0  0  0  0  0  0  0  0  0
   23.8304   72.1280    4.7399 O   0  0  0  0  0  0  0  0  0  0  0  0
   21.1705   72.7754    3.5165 O   0  0  0  0  0  0  0  0  0  0  0  0
   22.4059   75.2058    3.5735 O   0  0  0  0  0  0  0  0  0  0  0  0
   22.4730   72.8594    2.9404 C   0  0  1  0  0  0  0  0  0  0  0  0
   23.2193   74.0527    3.4995 C   0  0  2  0  0  0  0  0  0  0  0  0
   23.2966   71.6923    3.4704 C   0  0  1  0  0  0  0  0  0  0  0  0
   23.6423   73.5468    4.8682 C   0  0  2  0  0  0  0  0  0  0  0  0
   20.6258   73.5104    3.1925 H   0  0  0  0  0  0  0  0  0  0  0  0
   22.1633   75.4886    2.6780 H   0  0  0  0  0  0  0  0  0  0  0  0
   23.8042   75.9308    6.3743 O   0  0  0  0  0  0  0  0  0  0  0  0
   28.4062   75.7351    6.5314 O   0  0  0  0  0  0  0  0  0  0  0  0
   24.8699   74.1413    5.3164 N   0  0  0  0  0  0  0  0  0  0  0  0
   26.0955   75.8313    6.4514 N   0  0  0  0  0  0  0  0  0  0  0  0
   24.8415   75.3403    6.0660 C   0  0  0  0  0  0  0  0  0  0  0  0
   26.0845   73.5360    5.0125 C   0  0  0  0  0  0  0  0  0  0  0  0
   27.2717   74.0177    5.3864 C   0  0  0  0  0  0  0  0  0  0  0  0
   27.3301   75.2668    6.1727 C   0  0  0  0  0  0  0  0  0  0  0  0
   26.1004   76.6658    6.9742 H   0  0  0  0  0  0  0  0  0  0  0  0
   23.3454   70.5421   -1.0343 O   0  0  0  0  0  0  0  0  0  0  0  0
   21.7514   70.7856   -1.1471 P   0  0  2  0  0  0  0  0  0  0  0  0
   21.5362   72.1948   -0.3819 O   0  0  0  0  0  0  0  0  0  0  0  0
   20.9172   69.6574   -0.6132 O   0  0  0  0  0  0  0  0  0  0  0  0
   21.4992   71.1249   -2.7048 O   0  0  0  0  0  0  0  0  0  0  0  0
   22.3736   73.3025   -3.0365 O   0  0  0  0  0  0  0  0  0  0  0  0
   20.9979   72.5549   -6.8574 O   0  0  0  0  0  0  0  0  0  0  0  0
   23.8231   72.5505   -6.3413 O   0  0  0  0  0  0  0  0  0  0  0  0
   19.4702   71.6524   -4.5703 O   0  0  0  0  0  0  0  0  0  0  0  0
   21.5756   72.2219   -5.5921 C   0  0  1  0  0  0  0  0  0  0  0  0
   22.8553   73.0423   -5.4184 C   0  0  1  0  0  0  0  0  0  0  0  0
   20.5743   72.5469   -4.4853 C   0  0  2  0  0  0  0  0  0  0  0  0
   23.3870   72.9419   -3.9824 C   0  0  1  0  0  0  0  0  0  0  0  0
   21.2175   72.4650   -3.0998 C   0  0  1  0  0  0  0  0  0  0  0  0
   21.6285   72.3504   -7.5646 H   0  0  0  0  0  0  0  0  0  0  0  0
   23.4748   72.6190   -7.2442 H   0  0  0  0  0  0  0  0  0  0  0  0
   19.0715   71.7139   -5.4518 H   0  0  0  0  0  0  0  0  0  0  0  0
   24.6355   74.8018   -4.8135 O   0  0  0  0  0  0  0  0  0  0  0  0
   24.5717   73.8757   -3.7446 C   0  0  0  0  0  0  0  0  0  0  0  0
   25.3848   75.4029   -4.6754 H   0  0  0  0  0  0  0  0  0  0  0  0
 25 28  1  0
 25 24  1  0
 25 26  1  1
 25 27  2  0
  1  4  1  0
  1 24  1  0
  1  2  1  6
  1  3  2  0
  6 11  1  0
  6 12  1  0
 29 36  1  0
 29 37  1  0
  9  7  1  1
  7 13  1  0
 10  8  1  1
  8 14  1  0
 37 28  1  6
  4  5  1  0
 33 30  1  6
 30 38  1  0
 34 31  1  6
 31 39  1  0
 35 32  1  1
 32 40  1  0
 41 42  1  0
 41 43  1  0
 15 19  2  0
 16 22  2  0
 12 17  1  6
 17 19  1  0
 17 20  1  0
 18 19  1  0
 18 22  1  0
 18 23  1  0
  9 10  1  0
  9 11  1  0
 10 12  1  0
 11  5  1  6
 33 34  1  0
 33 35  1  0
 34 36  1  0
 35 37  1  0
 36 42  1  6
 20 21  2  0
 21 22  1  0
M  CHG  2   2  -1  26  -1
M  END
>  <COMPND>  (195) 
    8629 

>  <AUTHOR>  (195) 
    GENERATED BY OPEN BABEL 3.1.1

>  <MASTER>  (195) 
        0    0    0    0    0    0    0    0   58    0   58    0

>  <minimizedAffinity>  (195) 
-6.60882

>  <CNNscore>  (195) 
0.4075402915

>  <CNNaffinity>  (195) 
3.8708293438

>  <CNN_VS>  (195) 
1.5775189400

>  <CNNaffinity_variance>  (195) 
0.1989335418

$$$$
196
     RDKit          3D

 43 45  0  0  0  0  0  0  0  0999 V2000
   23.9279   72.1322   -3.1447 P   0  0  2  0  0  0  0  0  0  0  0  0
   24.9444   70.8744   -3.0995 O   0  0  0  0  0  0  0  0  0  0  0  0
   24.4207   73.3176   -3.9215 O   0  0  0  0  0  0  0  0  0  0  0  0
   23.5807   72.4071   -1.5885 O   0  0  0  0  0  0  0  0  0  0  0  0
   24.5634   72.1059   -0.6130 C   0  0  0  0  0  0  0  0  0  0  0  0
   24.8339   70.9418    1.4715 O   0  0  0  0  0  0  0  0  0  0  0  0
   22.1190   69.7769    0.9584 O   0  0  0  0  0  0  0  0  0  0  0  0
   21.5863   71.7562    2.7570 O   0  0  0  0  0  0  0  0  0  0  0  0
   22.6123   71.0815    0.6586 C   0  0  1  0  0  0  0  0  0  0  0  0
   22.7174   71.9075    1.9237 C   0  0  2  0  0  0  0  0  0  0  0  0
   24.0723   70.9474    0.2442 C   0  0  1  0  0  0  0  0  0  0  0  0
   23.9858   71.3582    2.5542 C   0  0  2  0  0  0  0  0  0  0  0  0
   21.1879   69.8369    1.2253 H   0  0  0  0  0  0  0  0  0  0  0  0
   20.8054   72.1206    2.3118 H   0  0  0  0  0  0  0  0  0  0  0  0
   23.2180   72.1598    5.1515 O   0  0  0  0  0  0  0  0  0  0  0  0
   26.7177   75.1424    5.4637 O   0  0  0  0  0  0  0  0  0  0  0  0
   24.6785   72.3420    3.3374 N   0  0  0  0  0  0  0  0  0  0  0  0
   24.9613   73.6441    5.3049 N   0  0  0  0  0  0  0  0  0  0  0  0
   24.2102   72.6733    4.6302 C   0  0  0  0  0  0  0  0  0  0  0  0
   25.8092   72.9669    2.8226 C   0  0  0  0  0  0  0  0  0  0  0  0
   26.5135   73.8917    3.4783 C   0  0  0  0  0  0  0  0  0  0  0  0
   26.0912   74.2949    4.8352 C   0  0  0  0  0  0  0  0  0  0  0  0
   24.6536   73.8912    6.2071 H   0  0  0  0  0  0  0  0  0  0  0  0
   22.5633   71.4767   -3.7111 O   0  0  0  0  0  0  0  0  0  0  0  0
   21.4170   72.0805   -4.6778 P   0  0  2  0  0  0  0  0  0  0  0  0
   22.0537   71.9160   -6.1560 O   0  0  0  0  0  0  0  0  0  0  0  0
   20.9989   73.4813   -4.3360 O   0  0  0  0  0  0  0  0  0  0  0  0
   20.2241   70.9947   -4.6246 O   0  0  0  0  0  0  0  0  0  0  0  0
   18.3452   71.1017   -6.0650 O   0  0  0  0  0  0  0  0  0  0  0  0
   16.6647   68.9823   -2.9450 O   0  0  0  0  0  0  0  0  0  0  0  0
   17.2612   67.6394   -5.4125 O   0  0  0  0  0  0  0  0  0  0  0  0
   18.5259   71.1300   -2.3946 O   0  0  0  0  0  0  0  0  0  0  0  0
   17.7105   69.3806   -3.8355 C   0  0  1  0  0  0  0  0  0  0  0  0
   17.2724   69.0566   -5.2651 C   0  0  1  0  0  0  0  0  0  0  0  0
   17.9582   70.8795   -3.6758 C   0  0  2  0  0  0  0  0  0  0  0  0
   18.2184   69.6932   -6.2922 C   0  0  1  0  0  0  0  0  0  0  0  0
   18.8726   71.4212   -4.7760 C   0  0  1  0  0  0  0  0  0  0  0  0
   16.5028   68.0315   -3.0410 H   0  0  0  0  0  0  0  0  0  0  0  0
   16.6604   67.2497   -4.7579 H   0  0  0  0  0  0  0  0  0  0  0  0
   17.9376   70.7827   -1.7068 H   0  0  0  0  0  0  0  0  0  0  0  0
   17.3727   70.7887   -8.2399 O   0  0  0  0  0  0  0  0  0  0  0  0
   17.7129   69.5157   -7.7223 C   0  0  0  0  0  0  0  0  0  0  0  0
   17.0496   70.6913   -9.1498 H   0  0  0  0  0  0  0  0  0  0  0  0
 25 28  1  0
 25 24  1  0
 25 26  1  6
 25 27  2  0
  1  4  1  0
  1 24  1  0
  1  2  1  1
  1  3  2  0
  6 11  1  0
  6 12  1  0
 29 36  1  0
 29 37  1  0
  9  7  1  1
  7 13  1  0
 10  8  1  1
  8 14  1  0
 37 28  1  1
  4  5  1  0
 33 30  1  1
 30 38  1  0
 34 31  1  1
 31 39  1  0
 35 32  1  1
 32 40  1  0
 41 42  1  0
 41 43  1  0
 15 19  2  0
 16 22  2  0
 12 17  1  6
 17 19  1  0
 17 20  1  0
 18 19  1  0
 18 22  1  0
 18 23  1  0
  9 10  1  0
  9 11  1  0
 10 12  1  0
 11  5  1  6
 33 34  1  0
 33 35  1  0
 34 36  1  0
 35 37  1  0
 36 42  1  6
 20 21  2  0
 21 22  1  0
M  CHG  2   2  -1  26  -1
M  END
>  <COMPND>  (196) 
    8629 

>  <AUTHOR>  (196) 
    GENERATED BY OPEN BABEL 3.1.1

>  <MASTER>  (196) 
        0    0    0    0    0    0    0    0   58    0   58    0

>  <minimizedAffinity>  (196) 
-7.92136

>  <CNNscore>  (196) 
0.4019157290

>  <CNNaffinity>  (196) 
4.0206785202

>  <CNN_VS>  (196) 
1.6159739494

>  <CNNaffinity_variance>  (196) 
0.4366008341

$$$$
197
     RDKit          3D

 43 45  0  0  0  0  0  0  0  0999 V2000
   24.4840   71.2426   -0.0582 P   0  0  2  0  0  0  0  0  0  0  0  0
   24.7003   69.9388    0.8749 O   0  0  0  0  0  0  0  0  0  0  0  0
   24.6461   71.0023   -1.5304 O   0  0  0  0  0  0  0  0  0  0  0  0
   25.4725   72.3497    0.5861 O   0  0  0  0  0  0  0  0  0  0  0  0
   25.8967   72.1786    1.9272 C   0  0  0  0  0  0  0  0  0  0  0  0
   25.3993   74.3801    2.7516 O   0  0  0  0  0  0  0  0  0  0  0  0
   28.2096   74.4203    3.7964 O   0  0  0  0  0  0  0  0  0  0  0  0
   26.7534   73.8461    6.0294 O   0  0  0  0  0  0  0  0  0  0  0  0
   27.2926   73.3303    3.7154 C   0  0  1  0  0  0  0  0  0  0  0  0
   26.2211   73.4647    4.7772 C   0  0  2  0  0  0  0  0  0  0  0  0
   26.4888   73.4878    2.4307 C   0  0  1  0  0  0  0  0  0  0  0  0
   25.3157   74.5277    4.1785 C   0  0  2  0  0  0  0  0  0  0  0  0
   28.7346   74.3413    4.6089 H   0  0  0  0  0  0  0  0  0  0  0  0
   27.3220   73.1373    6.3687 H   0  0  0  0  0  0  0  0  0  0  0  0
   24.2453   75.5227    6.5955 O   0  0  0  0  0  0  0  0  0  0  0  0
   20.0512   73.8739    5.6300 O   0  0  0  0  0  0  0  0  0  0  0  0
   23.9471   74.3731    4.5839 N   0  0  0  0  0  0  0  0  0  0  0  0
   22.1578   74.7011    6.1127 N   0  0  0  0  0  0  0  0  0  0  0  0
   23.5111   74.9097    5.8178 C   0  0  0  0  0  0  0  0  0  0  0  0
   23.0531   73.6960    3.7617 C   0  0  0  0  0  0  0  0  0  0  0  0
   21.7659   73.5044    4.0581 C   0  0  0  0  0  0  0  0  0  0  0  0
   21.2300   74.0337    5.3288 C   0  0  0  0  0  0  0  0  0  0  0  0
   21.8317   75.0658    6.9673 H   0  0  0  0  0  0  0  0  0  0  0  0
   23.0185   71.7646    0.3808 O   0  0  0  0  0  0  0  0  0  0  0  0
   21.5588   71.0889    0.2204 P   0  0  2  0  0  0  0  0  0  0  0  0
   20.5971   72.0779    1.0657 O   0  0  0  0  0  0  0  0  0  0  0  0
   21.4963   69.6507    0.6467 O   0  0  0  0  0  0  0  0  0  0  0  0
   21.1560   71.3477   -1.3209 O   0  0  0  0  0  0  0  0  0  0  0  0
   19.9668   69.5114   -2.2322 O   0  0  0  0  0  0  0  0  0  0  0  0
   20.6021   71.6698   -5.6947 O   0  0  0  0  0  0  0  0  0  0  0  0
   17.9686   71.5622   -4.5540 O   0  0  0  0  0  0  0  0  0  0  0  0
   22.6717   71.5382   -3.6749 O   0  0  0  0  0  0  0  0  0  0  0  0
   20.3458   71.4915   -4.2990 C   0  0  1  0  0  0  0  0  0  0  0  0
   19.0377   70.7125   -4.1474 C   0  0  1  0  0  0  0  0  0  0  0  0
   21.5064   70.7205   -3.6728 C   0  0  2  0  0  0  0  0  0  0  0  0
   18.8323   70.2515   -2.6981 C   0  0  1  0  0  0  0  0  0  0  0  0
   21.1799   70.2664   -2.2490 C   0  0  1  0  0  0  0  0  0  0  0  0
   19.8691   72.1591   -6.0982 H   0  0  0  0  0  0  0  0  0  0  0  0
   18.1107   71.8466   -5.4706 H   0  0  0  0  0  0  0  0  0  0  0  0
   22.8679   71.8189   -4.5819 H   0  0  0  0  0  0  0  0  0  0  0  0
   17.4052   68.6745   -3.7868 O   0  0  0  0  0  0  0  0  0  0  0  0
   17.6156   69.3398   -2.5550 C   0  0  0  0  0  0  0  0  0  0  0  0
   16.6340   68.0904   -3.7105 H   0  0  0  0  0  0  0  0  0  0  0  0
 25 28  1  0
 25 24  1  0
 25 26  1  1
 25 27  2  0
  1  4  1  0
  1 24  1  0
  1  2  1  1
  1  3  2  0
  6 11  1  0
  6 12  1  0
 29 36  1  0
 29 37  1  0
  9  7  1  1
  7 13  1  0
 10  8  1  1
  8 14  1  0
 37 28  1  1
  4  5  1  0
 33 30  1  6
 30 38  1  0
 34 31  1  1
 31 39  1  0
 35 32  1  1
 32 40  1  0
 41 42  1  0
 41 43  1  0
 15 19  2  0
 16 22  2  0
 12 17  1  1
 17 19  1  0
 17 20  1  0
 18 19  1  0
 18 22  1  0
 18 23  1  0
  9 10  1  0
  9 11  1  0
 10 12  1  0
 11  5  1  1
 33 34  1  0
 33 35  1  0
 34 36  1  0
 35 37  1  0
 36 42  1  6
 20 21  2  0
 21 22  1  0
M  CHG  2   2  -1  26  -1
M  END
>  <COMPND>  (197) 
    8629 

>  <AUTHOR>  (197) 
    GENERATED BY OPEN BABEL 3.1.1

>  <MASTER>  (197) 
        0    0    0    0    0    0    0    0   58    0   58    0

>  <minimizedAffinity>  (197) 
-6.39958

>  <CNNscore>  (197) 
0.3842593431

>  <CNNaffinity>  (197) 
4.1218829155

>  <CNN_VS>  (197) 
1.5838720798

>  <CNNaffinity_variance>  (197) 
0.1371597350

$$$$
198
     RDKit          3D

 43 45  0  0  0  0  0  0  0  0999 V2000
   18.8062   74.6007   -1.9275 P   0  0  2  0  0  0  0  0  0  0  0  0
   18.8665   76.1832   -2.2588 O   0  0  0  0  0  0  0  0  0  0  0  0
   18.3765   74.2616   -0.5305 O   0  0  0  0  0  0  0  0  0  0  0  0
   20.2656   74.0564   -2.3655 O   0  0  0  0  0  0  0  0  0  0  0  0
   21.0750   73.4288   -1.3862 C   0  0  0  0  0  0  0  0  0  0  0  0
   22.9230   71.9103   -1.6154 O   0  0  0  0  0  0  0  0  0  0  0  0
   20.8695   69.7785   -2.0946 O   0  0  0  0  0  0  0  0  0  0  0  0
   21.5577   69.3658    0.5116 O   0  0  0  0  0  0  0  0  0  0  0  0
   20.8147   70.9035   -1.2189 C   0  0  1  0  0  0  0  0  0  0  0  0
   21.6965   70.6719   -0.0096 C   0  0  2  0  0  0  0  0  0  0  0  0
   21.5170   72.0678   -1.9063 C   0  0  1  0  0  0  0  0  0  0  0  0
   23.0822   70.9312   -0.5758 C   0  0  2  0  0  0  0  0  0  0  0  0
   20.4269   69.0223   -1.6774 H   0  0  0  0  0  0  0  0  0  0  0  0
   20.6597   69.2501    0.8595 H   0  0  0  0  0  0  0  0  0  0  0  0
   25.8349   70.3081   -0.4639 O   0  0  0  0  0  0  0  0  0  0  0  0
   26.4693   72.9517    3.2577 O   0  0  0  0  0  0  0  0  0  0  0  0
   23.9903   71.4430    0.4116 N   0  0  0  0  0  0  0  0  0  0  0  0
   26.1486   71.6251    1.3889 N   0  0  0  0  0  0  0  0  0  0  0  0
   25.3535   71.0672    0.3797 C   0  0  0  0  0  0  0  0  0  0  0  0
   23.5269   72.3076    1.3973 C   0  0  0  0  0  0  0  0  0  0  0  0
   24.2978   72.8299    2.3534 C   0  0  0  0  0  0  0  0  0  0  0  0
   25.7344   72.4879    2.3912 C   0  0  0  0  0  0  0  0  0  0  0  0
   27.1016   71.3771    1.3868 H   0  0  0  0  0  0  0  0  0  0  0  0
   17.8399   74.0231   -3.0875 O   0  0  0  0  0  0  0  0  0  0  0  0
   17.4719   72.5054   -3.5045 P   0  0  2  0  0  0  0  0  0  0  0  0
   15.9355   72.6185   -3.9987 O   0  0  0  0  0  0  0  0  0  0  0  0
   17.6997   71.4959   -2.4168 O   0  0  0  0  0  0  0  0  0  0  0  0
   18.3154   72.2365   -4.8540 O   0  0  0  0  0  0  0  0  0  0  0  0
   18.1382   69.8744   -4.9282 O   0  0  0  0  0  0  0  0  0  0  0  0
   19.7060   70.5369   -8.6903 O   0  0  0  0  0  0  0  0  0  0  0  0
   16.9531   69.7654   -8.4171 O   0  0  0  0  0  0  0  0  0  0  0  0
   20.6241   72.1162   -6.4448 O   0  0  0  0  0  0  0  0  0  0  0  0
   18.9070   70.8315   -7.5413 C   0  0  1  0  0  0  0  0  0  0  0  0
   17.8993   69.6956   -7.3540 C   0  0  1  0  0  0  0  0  0  0  0  0
   19.8153   70.9514   -6.3191 C   0  0  2  0  0  0  0  0  0  0  0  0
   17.1885   69.8037   -5.9981 C   0  0  1  0  0  0  0  0  0  0  0  0
   19.0098   71.0030   -5.0196 C   0  0  1  0  0  0  0  0  0  0  0  0
   19.1353   70.4599   -9.4700 H   0  0  0  0  0  0  0  0  0  0  0  0
   17.4149   69.6965   -9.2675 H   0  0  0  0  0  0  0  0  0  0  0  0
   21.1292   72.0714   -7.2711 H   0  0  0  0  0  0  0  0  0  0  0  0
   15.9206   68.6162   -4.3577 O   0  0  0  0  0  0  0  0  0  0  0  0
   16.2953   68.5960   -5.7228 C   0  0  0  0  0  0  0  0  0  0  0  0
   15.3515   67.8533   -4.1679 H   0  0  0  0  0  0  0  0  0  0  0  0
 25 28  1  0
 25 24  1  0
 25 26  1  6
 25 27  2  0
  1  4  1  0
  1 24  1  0
  1  2  1  1
  1  3  2  0
  6 11  1  0
  6 12  1  0
 29 36  1  0
 29 37  1  0
  9  7  1  6
  7 13  1  0
 10  8  1  6
  8 14  1  0
 37 28  1  6
  4  5  1  0
 33 30  1  6
 30 38  1  0
 34 31  1  6
 31 39  1  0
 35 32  1  6
 32 40  1  0
 41 42  1  0
 41 43  1  0
 15 19  2  0
 16 22  2  0
 12 17  1  1
 17 19  1  0
 17 20  1  0
 18 19  1  0
 18 22  1  0
 18 23  1  0
  9 10  1  0
  9 11  1  0
 10 12  1  0
 11  5  1  1
 33 34  1  0
 33 35  1  0
 34 36  1  0
 35 37  1  0
 36 42  1  1
 20 21  2  0
 21 22  1  0
M  CHG  2   2  -1  26  -1
M  END
>  <COMPND>  (198) 
    8629 

>  <AUTHOR>  (198) 
    GENERATED BY OPEN BABEL 3.1.1

>  <MASTER>  (198) 
        0    0    0    0    0    0    0    0   58    0   58    0

>  <minimizedAffinity>  (198) 
-6.82518

>  <CNNscore>  (198) 
0.3742359579

>  <CNNaffinity>  (198) 
4.2529745102

>  <CNN_VS>  (198) 
1.5916160345

>  <CNNaffinity_variance>  (198) 
0.1603844017

$$$$
199
     RDKit          3D

 43 45  0  0  0  0  0  0  0  0999 V2000
   17.9479   69.6717   -2.3036 P   0  0  2  0  0  0  0  0  0  0  0  0
   19.3862   69.0707   -2.7366 O   0  0  0  0  0  0  0  0  0  0  0  0
   17.0697   68.7253   -1.5391 O   0  0  0  0  0  0  0  0  0  0  0  0
   17.3317   70.2397   -3.6876 O   0  0  0  0  0  0  0  0  0  0  0  0
   16.3345   69.4784   -4.3464 C   0  0  0  0  0  0  0  0  0  0  0  0
   16.6490   71.4299   -5.7126 O   0  0  0  0  0  0  0  0  0  0  0  0
   14.8576   70.0909   -7.7098 O   0  0  0  0  0  0  0  0  0  0  0  0
   17.3412   69.6361   -8.7401 O   0  0  0  0  0  0  0  0  0  0  0  0
   15.8296   69.5132   -6.8398 C   0  0  1  0  0  0  0  0  0  0  0  0
   17.2272   69.8094   -7.3423 C   0  0  2  0  0  0  0  0  0  0  0  0
   15.7958   70.2798   -5.5235 C   0  0  1  0  0  0  0  0  0  0  0  0
   17.4159   71.2550   -6.9151 C   0  0  2  0  0  0  0  0  0  0  0  0
   14.8604   69.6176   -8.5571 H   0  0  0  0  0  0  0  0  0  0  0  0
   17.2135   68.7005   -8.9616 H   0  0  0  0  0  0  0  0  0  0  0  0
   18.4380   73.8793   -6.6989 O   0  0  0  0  0  0  0  0  0  0  0  0
   22.7037   72.3456   -5.8663 O   0  0  0  0  0  0  0  0  0  0  0  0
   18.7897   71.5706   -6.6420 N   0  0  0  0  0  0  0  0  0  0  0  0
   20.5611   73.1135   -6.2843 N   0  0  0  0  0  0  0  0  0  0  0  0
   19.2002   72.9212   -6.5546 C   0  0  0  0  0  0  0  0  0  0  0  0
   19.7137   70.5466   -6.4637 C   0  0  0  0  0  0  0  0  0  0  0  0
   21.0082   70.7468   -6.2079 C   0  0  0  0  0  0  0  0  0  0  0  0
   21.5188   72.1287   -6.1005 C   0  0  0  0  0  0  0  0  0  0  0  0
   20.8700   74.0463   -6.2193 H   0  0  0  0  0  0  0  0  0  0  0  0
   18.3433   71.0187   -1.5022 O   0  0  0  0  0  0  0  0  0  0  0  0
   19.3901   72.1976   -1.8589 P   0  0  2  0  0  0  0  0  0  0  0  0
   18.7578   73.4912   -1.1211 O   0  0  0  0  0  0  0  0  0  0  0  0
   19.6333   72.3805   -3.3291 O   0  0  0  0  0  0  0  0  0  0  0  0
   20.7110   71.8444   -1.0014 O   0  0  0  0  0  0  0  0  0  0  0  0
   22.6136   71.6036   -2.3938 O   0  0  0  0  0  0  0  0  0  0  0  0
   24.2160   70.2314    1.1559 O   0  0  0  0  0  0  0  0  0  0  0  0
   25.0042   72.8010    0.1439 O   0  0  0  0  0  0  0  0  0  0  0  0
   21.4855   69.5738    0.4545 O   0  0  0  0  0  0  0  0  0  0  0  0
   23.3824   71.0532    0.3341 C   0  0  1  0  0  0  0  0  0  0  0  0
   24.2796   71.8422   -0.6216 C   0  0  1  0  0  0  0  0  0  0  0  0
   22.4173   70.1627   -0.4463 C   0  0  2  0  0  0  0  0  0  0  0  0
   23.4519   72.5413   -1.7084 C   0  0  1  0  0  0  0  0  0  0  0  0
   21.6805   70.9459   -1.5343 C   0  0  1  0  0  0  0  0  0  0  0  0
   24.8308   70.7907    1.6544 H   0  0  0  0  0  0  0  0  0  0  0  0
   25.5222   72.3466    0.8269 H   0  0  0  0  0  0  0  0  0  0  0  0
   21.9644   69.0807    1.1382 H   0  0  0  0  0  0  0  0  0  0  0  0
   24.8105   72.2026   -3.6444 O   0  0  0  0  0  0  0  0  0  0  0  0
   24.3356   73.2036   -2.7631 C   0  0  0  0  0  0  0  0  0  0  0  0
   25.3743   72.6096   -4.3213 H   0  0  0  0  0  0  0  0  0  0  0  0
 25 28  1  0
 25 24  1  0
 25 26  1  1
 25 27  2  0
  1  4  1  0
  1 24  1  0
  1  2  1  6
  1  3  2  0
  6 11  1  0
  6 12  1  0
 29 36  1  0
 29 37  1  0
  9  7  1  6
  7 13  1  0
 10  8  1  6
  8 14  1  0
 37 28  1  1
  4  5  1  0
 33 30  1  1
 30 38  1  0
 34 31  1  1
 31 39  1  0
 35 32  1  1
 32 40  1  0
 41 42  1  0
 41 43  1  0
 15 19  2  0
 16 22  2  0
 12 17  1  1
 17 19  1  0
 17 20  1  0
 18 19  1  0
 18 22  1  0
 18 23  1  0
  9 10  1  0
  9 11  1  0
 10 12  1  0
 11  5  1  1
 33 34  1  0
 33 35  1  0
 34 36  1  0
 35 37  1  0
 36 42  1  6
 20 21  2  0
 21 22  1  0
M  CHG  2   2  -1  26  -1
M  END
>  <COMPND>  (199) 
    8629 

>  <AUTHOR>  (199) 
    GENERATED BY OPEN BABEL 3.1.1

>  <MASTER>  (199) 
        0    0    0    0    0    0    0    0   58    0   58    0

>  <minimizedAffinity>  (199) 
-7.62662

>  <CNNscore>  (199) 
0.3697455525

>  <CNNaffinity>  (199) 
4.0061397552

>  <CNN_VS>  (199) 
1.4812523127

>  <CNNaffinity_variance>  (199) 
0.9051114917

$$$$
200
     RDKit          3D

 43 45  0  0  0  0  0  0  0  0999 V2000
   21.4410   74.7820   -5.2531 P   0  0  2  0  0  0  0  0  0  0  0  0
   20.5940   75.8248   -4.3517 O   0  0  0  0  0  0  0  0  0  0  0  0
   21.9251   75.3259   -6.5650 O   0  0  0  0  0  0  0  0  0  0  0  0
   20.4847   73.4799   -5.3422 O   0  0  0  0  0  0  0  0  0  0  0  0
   20.3351   72.8354   -6.5952 C   0  0  0  0  0  0  0  0  0  0  0  0
   19.8660   70.8759   -5.2860 O   0  0  0  0  0  0  0  0  0  0  0  0
   20.9126   69.2997   -7.6121 O   0  0  0  0  0  0  0  0  0  0  0  0
   18.2111   69.0811   -7.9133 O   0  0  0  0  0  0  0  0  0  0  0  0
   20.1555   70.5089   -7.6092 C   0  0  1  0  0  0  0  0  0  0  0  0
   18.7118   70.2243   -7.2507 C   0  0  2  0  0  0  0  0  0  0  0  0
   20.6176   71.3490   -6.4251 C   0  0  1  0  0  0  0  0  0  0  0  0
   18.7917   70.0391   -5.7449 C   0  0  2  0  0  0  0  0  0  0  0  0
   20.6354   68.7466   -8.3599 H   0  0  0  0  0  0  0  0  0  0  0  0
   18.1795   69.2486   -8.8682 H   0  0  0  0  0  0  0  0  0  0  0  0
   17.6252   68.6259   -3.5954 O   0  0  0  0  0  0  0  0  0  0  0  0
   14.1424   71.6271   -3.2728 O   0  0  0  0  0  0  0  0  0  0  0  0
   17.5804   70.4290   -5.0800 N   0  0  0  0  0  0  0  0  0  0  0  0
   15.8921   70.1215   -3.4364 N   0  0  0  0  0  0  0  0  0  0  0  0
   17.0785   69.6493   -4.0120 C   0  0  0  0  0  0  0  0  0  0  0  0
   16.9034   71.5732   -5.4880 C   0  0  0  0  0  0  0  0  0  0  0  0
   15.7724   72.0093   -4.9295 C   0  0  0  0  0  0  0  0  0  0  0  0
   15.1814   71.2520   -3.8073 C   0  0  0  0  0  0  0  0  0  0  0  0
   15.5236   69.5942   -2.6908 H   0  0  0  0  0  0  0  0  0  0  0  0
   22.6140   74.3032   -4.2493 O   0  0  0  0  0  0  0  0  0  0  0  0
   23.5205   72.9649   -4.2375 P   0  0  2  0  0  0  0  0  0  0  0  0
   24.8640   73.4334   -3.4674 O   0  0  0  0  0  0  0  0  0  0  0  0
   23.7602   72.3720   -5.5958 O   0  0  0  0  0  0  0  0  0  0  0  0
   22.7783   71.9778   -3.1984 O   0  0  0  0  0  0  0  0  0  0  0  0
   20.9824   72.9045   -1.9603 O   0  0  0  0  0  0  0  0  0  0  0  0
   21.6870   69.5353    0.3206 O   0  0  0  0  0  0  0  0  0  0  0  0
   19.3406   69.6647   -1.3303 O   0  0  0  0  0  0  0  0  0  0  0  0
   23.9093   70.9932   -0.8264 O   0  0  0  0  0  0  0  0  0  0  0  0
   21.6041   70.2975   -0.8867 C   0  0  1  0  0  0  0  0  0  0  0  0
   20.1647   70.7914   -1.0442 C   0  0  1  0  0  0  0  0  0  0  0  0
   22.5708   71.4771   -0.7997 C   0  0  2  0  0  0  0  0  0  0  0  0
   20.0557   71.8320   -2.1668 C   0  0  1  0  0  0  0  0  0  0  0  0
   22.3456   72.4768   -1.9354 C   0  0  1  0  0  0  0  0  0  0  0  0
   21.0760   68.7844    0.2716 H   0  0  0  0  0  0  0  0  0  0  0  0
   19.4189   69.0151   -0.6141 H   0  0  0  0  0  0  0  0  0  0  0  0
   24.0392   70.3615   -0.1025 H   0  0  0  0  0  0  0  0  0  0  0  0
   17.9919   72.1927   -1.0181 O   0  0  0  0  0  0  0  0  0  0  0  0
   18.6626   72.4535   -2.2373 C   0  0  0  0  0  0  0  0  0  0  0  0
   17.1039   72.5827   -1.0484 H   0  0  0  0  0  0  0  0  0  0  0  0
 25 28  1  0
 25 24  1  0
 25 26  1  1
 25 27  2  0
  1  4  1  0
  1 24  1  0
  1  2  1  1
  1  3  2  0
  6 11  1  0
  6 12  1  0
 29 36  1  0
 29 37  1  0
  9  7  1  1
  7 13  1  0
 10  8  1  6
  8 14  1  0
 37 28  1  6
  4  5  1  0
 33 30  1  1
 30 38  1  0
 34 31  1  6
 31 39  1  0
 35 32  1  6
 32 40  1  0
 41 42  1  0
 41 43  1  0
 15 19  2  0
 16 22  2  0
 12 17  1  1
 17 19  1  0
 17 20  1  0
 18 19  1  0
 18 22  1  0
 18 23  1  0
  9 10  1  0
  9 11  1  0
 10 12  1  0
 11  5  1  6
 33 34  1  0
 33 35  1  0
 34 36  1  0
 35 37  1  0
 36 42  1  1
 20 21  2  0
 21 22  1  0
M  CHG  2   2  -1  26  -1
M  END
