1
     RDKit          3D

 43 45  0  0  0  0  0  0  0  0999 V2000
   24.2225   72.0322   -3.1483 P   0  0  2  0  0  0  0  0  0  0  0  0
   24.9912   73.2607   -3.8687 O   0  0  0  0  0  0  0  0  0  0  0  0
   25.0918   70.8613   -2.7944 O   0  0  0  0  0  0  0  0  0  0  0  0
   22.9843   71.7137   -4.1398 O   0  0  0  0  0  0  0  0  0  0  0  0
   22.3954   72.7862   -4.8522 C   0  0  0  0  0  0  0  0  0  0  0  0
   21.2044   70.9907   -5.9179 O   0  0  0  0  0  0  0  0  0  0  0  0
   20.7160   72.9028   -8.1755 O   0  0  0  0  0  0  0  0  0  0  0  0
   18.3447   72.9516   -6.8299 O   0  0  0  0  0  0  0  0  0  0  0  0
   20.7669   73.1566   -6.7714 C   0  0  1  0  0  0  0  0  0  0  0  0
   19.5125   72.6395   -6.0995 C   0  0  2  0  0  0  0  0  0  0  0  0
   21.8422   72.2614   -6.1709 C   0  0  1  0  0  0  0  0  0  0  0  0
   19.7813   71.1455   -6.0370 C   0  0  2  0  0  0  0  0  0  0  0  0
   20.0358   73.4635   -8.5813 H   0  0  0  0  0  0  0  0  0  0  0  0
   18.2175   73.9137   -6.8403 H   0  0  0  0  0  0  0  0  0  0  0  0
   17.3987   69.6358   -6.1808 O   0  0  0  0  0  0  0  0  0  0  0  0
   17.4410   68.7974   -1.6488 O   0  0  0  0  0  0  0  0  0  0  0  0
   19.1478   70.5215   -4.9100 N   0  0  0  0  0  0  0  0  0  0  0  0
   17.4215   69.2205   -3.9233 N   0  0  0  0  0  0  0  0  0  0  0  0
   17.9530   69.7853   -5.0902 C   0  0  0  0  0  0  0  0  0  0  0  0
   19.7099   70.6402   -3.6448 C   0  0  0  0  0  0  0  0  0  0  0  0
   19.1918   70.0962   -2.5419 C   0  0  0  0  0  0  0  0  0  0  0  0
   17.9438   69.3116   -2.6433 C   0  0  0  0  0  0  0  0  0  0  0  0
   16.5887   68.7050   -4.0233 H   0  0  0  0  0  0  0  0  0  0  0  0
   23.5043   72.7433   -1.8868 O   0  0  0  0  0  0  0  0  0  0  0  0
   22.5876   72.1317   -0.7039 P   0  0  2  0  0  0  0  0  0  0  0  0
   22.7451   70.5330   -0.9030 O   0  0  0  0  0  0  0  0  0  0  0  0
   21.1675   72.6188   -0.7110 O   0  0  0  0  0  0  0  0  0  0  0  0
   23.3996   72.4552    0.6520 O   0  0  0  0  0  0  0  0  0  0  0  0
   25.0315   71.3946    2.0015 O   0  0  0  0  0  0  0  0  0  0  0  0
   22.3698   72.7859    4.8383 O   0  0  0  0  0  0  0  0  0  0  0  0
   21.3979   71.5678    2.3672 O   0  0  0  0  0  0  0  0  0  0  0  0
   24.9046   74.1474    4.4239 O   0  0  0  0  0  0  0  0  0  0  0  0
   23.0829   72.8019    3.6017 C   0  0  2  0  0  0  0  0  0  0  0  0
   22.7520   71.5405    2.8037 C   0  0  2  0  0  0  0  0  0  0  0  0
   24.5791   72.8537    3.9192 C   0  0  1  0  0  0  0  0  0  0  0  0
   23.6657   71.4090    1.5844 C   0  0  1  0  0  0  0  0  0  0  0  0
   25.4220   72.5891    2.6750 C   0  0  1  0  0  0  0  0  0  0  0  0
   21.4164   72.7530    4.6616 H   0  0  0  0  0  0  0  0  0  0  0  0
   20.8125   71.6514    3.1358 H   0  0  0  0  0  0  0  0  0  0  0  0
   24.3748   74.3283    5.2159 H   0  0  0  0  0  0  0  0  0  0  0  0
   27.4167   71.4707    2.1534 O   0  0  0  0  0  0  0  0  0  0  0  0
   27.4184   72.7867    4.0155 O   0  0  0  0  0  0  0  0  0  0  0  0
   26.8434   72.3159    3.0456 C   0  0  0  0  0  0  0  0  0  0  0  0
  1  4  1  0
  1 24  1  0
  1  2  1  6
  1  3  2  0
 25 28  1  0
 25 24  1  0
 25 26  1  6
 25 27  2  0
  6 11  1  0
  6 12  1  0
 29 36  1  0
 29 37  1  0
  9  7  1  6
  7 13  1  0
 10  8  1  6
  8 14  1  0
  4  5  1  0
 36 28  1  6
 33 30  1  1
 30 38  1  0
 34 31  1  6
 31 39  1  0
 35 32  1  6
 32 40  1  0
 41 43  1  0
 15 19  2  0
 42 43  2  0
 16 22  2  0
 12 17  1  1
 17 19  1  0
 17 20  1  0
 18 19  1  0
 18 22  1  0
 18 23  1  0
  9 10  1  0
  9 11  1  0
 10 12  1  0
 11  5  1  1
 33 34  1  0
 33 35  1  0
 34 36  1  0
 35 37  1  0
 37 43  1  1
 20 21  2  0
 21 22  1  0
M  CHG  3   2  -1  26  -1  41  -1
M  END
>  <COMPND>  (1) 
    udp_gluA.pdb 

>  <AUTHOR>  (1) 
    GENERATED BY OPEN BABEL 3.1.1

>  <MASTER>  (1) 
        0    0    0    0    0    0    0    0   56    0   56    0

>  <minimizedAffinity>  (1) 
-7.91969

>  <CNNscore>  (1) 
0.7076759934

>  <CNNaffinity>  (1) 
4.4174838066

>  <CNN_VS>  (1) 
3.1261472702

>  <CNNaffinity_variance>  (1) 
0.1357123405

$$$$
2
     RDKit          3D

 43 45  0  0  0  0  0  0  0  0999 V2000
   19.2746   71.2204   -1.8535 P   0  0  2  0  0  0  0  0  0  0  0  0
   19.6701   69.6590   -1.6975 O   0  0  0  0  0  0  0  0  0  0  0  0
   17.9568   71.6039   -1.2466 O   0  0  0  0  0  0  0  0  0  0  0  0
   19.4266   71.5031   -3.4394 O   0  0  0  0  0  0  0  0  0  0  0  0
   20.3815   72.4566   -3.8677 C   0  0  0  0  0  0  0  0  0  0  0  0
   20.6196   70.6692   -5.4570 O   0  0  0  0  0  0  0  0  0  0  0  0
   22.8586   72.2720   -6.6440 O   0  0  0  0  0  0  0  0  0  0  0  0
   20.7917   72.7829   -8.3478 O   0  0  0  0  0  0  0  0  0  0  0  0
   21.6324   72.7217   -6.0671 C   0  0  1  0  0  0  0  0  0  0  0  0
   20.4794   72.4524   -7.0107 C   0  0  2  0  0  0  0  0  0  0  0  0
   21.3032   71.8094   -4.8933 C   0  0  1  0  0  0  0  0  0  0  0  0
   20.2522   70.9632   -6.8142 C   0  0  2  0  0  0  0  0  0  0  0  0
   23.0897   72.8398   -7.3963 H   0  0  0  0  0  0  0  0  0  0  0  0
   20.9268   73.7412   -8.4208 H   0  0  0  0  0  0  0  0  0  0  0  0
   19.1283   70.3435   -9.3299 O   0  0  0  0  0  0  0  0  0  0  0  0
   14.9849   69.5293   -7.4823 O   0  0  0  0  0  0  0  0  0  0  0  0
   18.8824   70.5861   -7.0193 N   0  0  0  0  0  0  0  0  0  0  0  0
   17.0655   69.9396   -8.4075 N   0  0  0  0  0  0  0  0  0  0  0  0
   18.4181   70.2952   -8.3238 C   0  0  0  0  0  0  0  0  0  0  0  0
   18.0155   70.5059   -5.9362 C   0  0  0  0  0  0  0  0  0  0  0  0
   16.7287   70.1653   -6.0316 C   0  0  0  0  0  0  0  0  0  0  0  0
   16.1641   69.8466   -7.3594 C   0  0  0  0  0  0  0  0  0  0  0  0
   16.7187   69.7345   -9.3058 H   0  0  0  0  0  0  0  0  0  0  0  0
   20.5532   71.9833   -1.2242 O   0  0  0  0  0  0  0  0  0  0  0  0
   20.9544   72.2935    0.3109 P   0  0  2  0  0  0  0  0  0  0  0  0
   21.4595   70.8565    0.8588 O   0  0  0  0  0  0  0  0  0  0  0  0
   19.8532   72.9124    1.1222 O   0  0  0  0  0  0  0  0  0  0  0  0
   22.2950   73.1854    0.2113 O   0  0  0  0  0  0  0  0  0  0  0  0
   23.9729   72.0910   -1.0521 O   0  0  0  0  0  0  0  0  0  0  0  0
   25.9854   75.4367    0.2986 O   0  0  0  0  0  0  0  0  0  0  0  0
   24.2024   73.9610    2.0811 O   0  0  0  0  0  0  0  0  0  0  0  0
   25.0839   75.2913   -2.4613 O   0  0  0  0  0  0  0  0  0  0  0  0
   24.8536   74.6857   -0.1407 C   0  0  2  0  0  0  0  0  0  0  0  0
   24.6264   73.5038    0.8021 C   0  0  2  0  0  0  0  0  0  0  0  0
   25.1383   74.1876   -1.5595 C   0  0  1  0  0  0  0  0  0  0  0  0
   23.5717   72.5499    0.2394 C   0  0  1  0  0  0  0  0  0  0  0  0
   24.1137   73.1464   -2.0005 C   0  0  1  0  0  0  0  0  0  0  0  0
   25.8273   75.7635    1.1983 H   0  0  0  0  0  0  0  0  0  0  0  0
   24.8668   74.5670    2.4440 H   0  0  0  0  0  0  0  0  0  0  0  0
   25.7313   75.9614   -2.1917 H   0  0  0  0  0  0  0  0  0  0  0  0
   24.9623   71.1680   -2.9318 O   0  0  0  0  0  0  0  0  0  0  0  0
   24.6052   72.9163   -4.3514 O   0  0  0  0  0  0  0  0  0  0  0  0
   24.5768   72.4337   -3.2292 C   0  0  0  0  0  0  0  0  0  0  0  0
  1  4  1  0
  1 24  1  0
  1  2  1  6
  1  3  2  0
 25 28  1  0
 25 24  1  0
 25 26  1  1
 25 27  2  0
  6 11  1  0
  6 12  1  0
 29 36  1  0
 29 37  1  0
  9  7  1  6
  7 13  1  0
 10  8  1  6
  8 14  1  0
  4  5  1  0
 36 28  1  6
 33 30  1  1
 30 38  1  0
 34 31  1  1
 31 39  1  0
 35 32  1  6
 32 40  1  0
 41 43  1  0
 15 19  2  0
 42 43  2  0
 16 22  2  0
 12 17  1  1
 17 19  1  0
 17 20  1  0
 18 19  1  0
 18 22  1  0
 18 23  1  0
  9 10  1  0
  9 11  1  0
 10 12  1  0
 11  5  1  1
 33 34  1  0
 33 35  1  0
 34 36  1  0
 35 37  1  0
 37 43  1  6
 20 21  2  0
 21 22  1  0
M  CHG  3   2  -1  26  -1  41  -1
M  END
>  <COMPND>  (2) 
    udp_gluA.pdb 

>  <AUTHOR>  (2) 
    GENERATED BY OPEN BABEL 3.1.1

>  <MASTER>  (2) 
        0    0    0    0    0    0    0    0   56    0   56    0

>  <minimizedAffinity>  (2) 
-6.95249

>  <CNNscore>  (2) 
0.6712751389

>  <CNNaffinity>  (2) 
4.4171738625

>  <CNN_VS>  (2) 
2.9651389122

>  <CNNaffinity_variance>  (2) 
0.1369123459

$$$$
3
     RDKit          3D

 43 45  0  0  0  0  0  0  0  0999 V2000
   19.6144   71.3761   -1.5574 P   0  0  2  0  0  0  0  0  0  0  0  0
   19.4010   69.7773   -1.4266 O   0  0  0  0  0  0  0  0  0  0  0  0
   18.4319   72.2081   -1.1558 O   0  0  0  0  0  0  0  0  0  0  0  0
   20.1304   71.5761   -3.0778 O   0  0  0  0  0  0  0  0  0  0  0  0
   21.0133   72.6472   -3.3567 C   0  0  0  0  0  0  0  0  0  0  0  0
   21.5309   71.0406   -5.0681 O   0  0  0  0  0  0  0  0  0  0  0  0
   23.6983   72.9278   -5.9240 O   0  0  0  0  0  0  0  0  0  0  0  0
   21.7272   73.4196   -7.7431 O   0  0  0  0  0  0  0  0  0  0  0  0
   22.3966   73.2181   -5.4142 C   0  0  1  0  0  0  0  0  0  0  0  0
   21.3468   72.9419   -6.4696 C   0  0  2  0  0  0  0  0  0  0  0  0
   22.0642   72.1769   -4.3542 C   0  0  1  0  0  0  0  0  0  0  0  0
   21.2413   71.4272   -6.4208 C   0  0  2  0  0  0  0  0  0  0  0  0
   23.9327   73.5799   -6.6032 H   0  0  0  0  0  0  0  0  0  0  0  0
   21.7801   74.3885   -7.7224 H   0  0  0  0  0  0  0  0  0  0  0  0
   20.7033   68.8970   -7.5545 O   0  0  0  0  0  0  0  0  0  0  0  0
   16.1735   69.7317   -7.7209 O   0  0  0  0  0  0  0  0  0  0  0  0
   19.9305   70.9576   -6.7702 N   0  0  0  0  0  0  0  0  0  0  0  0
   18.4478   69.3156   -7.6372 N   0  0  0  0  0  0  0  0  0  0  0  0
   19.7691   69.6701   -7.3344 C   0  0  0  0  0  0  0  0  0  0  0  0
   18.8226   71.7676   -6.5522 C   0  0  0  0  0  0  0  0  0  0  0  0
   17.5693   71.4158   -6.8459 C   0  0  0  0  0  0  0  0  0  0  0  0
   17.3140   70.0869   -7.4393 C   0  0  0  0  0  0  0  0  0  0  0  0
   18.3106   68.4245   -8.0329 H   0  0  0  0  0  0  0  0  0  0  0  0
   20.9490   71.6368   -0.6834 O   0  0  0  0  0  0  0  0  0  0  0  0
   22.1327   70.6339   -0.2287 P   0  0  2  0  0  0  0  0  0  0  0  0
   22.8878   70.2979   -1.6206 O   0  0  0  0  0  0  0  0  0  0  0  0
   21.6599   69.4252    0.5258 O   0  0  0  0  0  0  0  0  0  0  0  0
   23.1699   71.5661    0.5824 O   0  0  0  0  0  0  0  0  0  0  0  0
   22.4457   73.0053    2.3183 O   0  0  0  0  0  0  0  0  0  0  0  0
   26.1005   74.6567    1.3269 O   0  0  0  0  0  0  0  0  0  0  0  0
   24.2764   73.7357   -0.7609 O   0  0  0  0  0  0  0  0  0  0  0  0
   25.8229   73.0759    3.7507 O   0  0  0  0  0  0  0  0  0  0  0  0
   25.1486   73.6069    1.4994 C   0  0  2  0  0  0  0  0  0  0  0  0
   23.9309   73.8695    0.6129 C   0  0  2  0  0  0  0  0  0  0  0  0
   24.7378   73.5785    2.9733 C   0  0  1  0  0  0  0  0  0  0  0  0
   22.7971   72.8961    0.9384 C   0  0  1  0  0  0  0  0  0  0  0  0
   23.5224   72.6830    3.1957 C   0  0  1  0  0  0  0  0  0  0  0  0
   26.3762   74.6940    0.3974 H   0  0  0  0  0  0  0  0  0  0  0  0
   24.9955   74.3503   -0.9743 H   0  0  0  0  0  0  0  0  0  0  0  0
   26.6029   73.6369    3.6180 H   0  0  0  0  0  0  0  0  0  0  0  0
   23.6614   72.2827    5.5026 O   0  0  0  0  0  0  0  0  0  0  0  0
   21.9350   73.5821    4.7746 O   0  0  0  0  0  0  0  0  0  0  0  0
   22.9333   72.9147    4.5490 C   0  0  0  0  0  0  0  0  0  0  0  0
  1  4  1  0
  1 24  1  0
  1  2  1  6
  1  3  2  0
 25 28  1  0
 25 24  1  0
 25 26  1  6
 25 27  2  0
  6 11  1  0
  6 12  1  0
 29 36  1  0
 29 37  1  0
  9  7  1  6
  7 13  1  0
 10  8  1  6
  8 14  1  0
  4  5  1  0
 36 28  1  1
 33 30  1  1
 30 38  1  0
 34 31  1  6
 31 39  1  0
 35 32  1  1
 32 40  1  0
 41 43  1  0
 15 19  2  0
 42 43  2  0
 16 22  2  0
 12 17  1  1
 17 19  1  0
 17 20  1  0
 18 19  1  0
 18 22  1  0
 18 23  1  0
  9 10  1  0
  9 11  1  0
 10 12  1  0
 11  5  1  1
 33 34  1  0
 33 35  1  0
 34 36  1  0
 35 37  1  0
 37 43  1  1
 20 21  2  0
 21 22  1  0
M  CHG  3   2  -1  26  -1  41  -1
M  END
>  <COMPND>  (3) 
    udp_gluA.pdb 

>  <AUTHOR>  (3) 
    GENERATED BY OPEN BABEL 3.1.1

>  <MASTER>  (3) 
        0    0    0    0    0    0    0    0   56    0   56    0

>  <minimizedAffinity>  (3) 
-7.04914

>  <CNNscore>  (3) 
0.6387320757

>  <CNNaffinity>  (3) 
4.3332071304

>  <CNN_VS>  (3) 
2.7677583694

>  <CNNaffinity_variance>  (3) 
0.0349783227

$$$$
4
     RDKit          3D

 43 45  0  0  0  0  0  0  0  0999 V2000
   19.9407   72.0985   -1.1062 P   0  0  2  0  0  0  0  0  0  0  0  0
   18.8078   72.8523   -0.2303 O   0  0  0  0  0  0  0  0  0  0  0  0
   20.3594   72.8182   -2.3547 O   0  0  0  0  0  0  0  0  0  0  0  0
   19.3406   70.6112   -1.3203 O   0  0  0  0  0  0  0  0  0  0  0  0
   18.9791   70.2099   -2.6290 C   0  0  0  0  0  0  0  0  0  0  0  0
   17.4016   71.2413   -4.1207 O   0  0  0  0  0  0  0  0  0  0  0  0
   15.2907   69.6877   -2.6639 O   0  0  0  0  0  0  0  0  0  0  0  0
   15.6513   68.2197   -4.9335 O   0  0  0  0  0  0  0  0  0  0  0  0
   16.6278   69.3085   -2.9910 C   0  0  1  0  0  0  0  0  0  0  0  0
   16.7369   68.9938   -4.4680 C   0  0  2  0  0  0  0  0  0  0  0  0
   17.5109   70.5421   -2.8620 C   0  0  1  0  0  0  0  0  0  0  0  0
   16.7722   70.3819   -5.0844 C   0  0  2  0  0  0  0  0  0  0  0  0
   14.7077   68.9157   -2.7393 H   0  0  0  0  0  0  0  0  0  0  0  0
   15.6733   67.3457   -4.5121 H   0  0  0  0  0  0  0  0  0  0  0  0
   15.7315   69.7038   -7.6208 O   0  0  0  0  0  0  0  0  0  0  0  0
   19.7523   70.5646   -9.7031 O   0  0  0  0  0  0  0  0  0  0  0  0
   17.5251   70.4199   -6.3061 N   0  0  0  0  0  0  0  0  0  0  0  0
   17.7354   70.1322   -8.6554 N   0  0  0  0  0  0  0  0  0  0  0  0
   16.9078   70.0595   -7.5272 C   0  0  0  0  0  0  0  0  0  0  0  0
   18.8580   70.8122   -6.2874 C   0  0  0  0  0  0  0  0  0  0  0  0
   19.6341   70.8767   -7.3710 C   0  0  0  0  0  0  0  0  0  0  0  0
   19.0664   70.5158   -8.6866 C   0  0  0  0  0  0  0  0  0  0  0  0
   17.3284   69.8840   -9.5168 H   0  0  0  0  0  0  0  0  0  0  0  0
   21.1283   71.8606   -0.0358 O   0  0  0  0  0  0  0  0  0  0  0  0
   22.1725   70.6385    0.1369 P   0  0  2  0  0  0  0  0  0  0  0  0
   22.9053   70.5716   -1.3049 O   0  0  0  0  0  0  0  0  0  0  0  0
   21.5423   69.3468    0.5708 O   0  0  0  0  0  0  0  0  0  0  0  0
   23.3012   71.2034    1.1416 O   0  0  0  0  0  0  0  0  0  0  0  0
   23.5951   73.5432    1.3612 O   0  0  0  0  0  0  0  0  0  0  0  0
   27.1074   72.0984    2.9874 O   0  0  0  0  0  0  0  0  0  0  0  0
   26.0046   70.9143    0.5551 O   0  0  0  0  0  0  0  0  0  0  0  0
   25.0051   73.1115    4.7209 O   0  0  0  0  0  0  0  0  0  0  0  0
   25.7173   72.0803    2.6631 C   0  0  2  0  0  0  0  0  0  0  0  0
   25.5454   72.1252    1.1446 C   0  0  2  0  0  0  0  0  0  0  0  0
   25.0650   73.3048    3.3090 C   0  0  1  0  0  0  0  0  0  0  0  0
   24.0791   72.3386    0.7660 C   0  0  1  0  0  0  0  0  0  0  0  0
   23.6481   73.5222    2.7859 C   0  0  1  0  0  0  0  0  0  0  0  0
   27.5429   71.3292    2.5875 H   0  0  0  0  0  0  0  0  0  0  0  0
   26.9344   70.7724    0.7914 H   0  0  0  0  0  0  0  0  0  0  0  0
   25.9007   72.9719    5.0664 H   0  0  0  0  0  0  0  0  0  0  0  0
   21.8410   74.8239    3.5217 O   0  0  0  0  0  0  0  0  0  0  0  0
   23.8151   75.9019    3.1477 O   0  0  0  0  0  0  0  0  0  0  0  0
   23.1468   74.8790    3.1603 C   0  0  0  0  0  0  0  0  0  0  0  0
  1  4  1  0
  1 24  1  0
  1  2  1  1
  1  3  2  0
 25 28  1  0
 25 24  1  0
 25 26  1  6
 25 27  2  0
  6 11  1  0
  6 12  1  0
 29 36  1  0
 29 37  1  0
  9  7  1  6
  7 13  1  0
 10  8  1  6
  8 14  1  0
  4  5  1  0
 36 28  1  1
 33 30  1  6
 30 38  1  0
 34 31  1  6
 31 39  1  0
 35 32  1  1
 32 40  1  0
 41 43  1  0
 15 19  2  0
 42 43  2  0
 16 22  2  0
 12 17  1  6
 17 19  1  0
 17 20  1  0
 18 19  1  0
 18 22  1  0
 18 23  1  0
  9 10  1  0
  9 11  1  0
 10 12  1  0
 11  5  1  6
 33 34  1  0
 33 35  1  0
 34 36  1  0
 35 37  1  0
 37 43  1  1
 20 21  2  0
 21 22  1  0
M  CHG  3   2  -1  26  -1  41  -1
M  END
>  <COMPND>  (4) 
    udp_gluA.pdb 

>  <AUTHOR>  (4) 
    GENERATED BY OPEN BABEL 3.1.1

>  <MASTER>  (4) 
        0    0    0    0    0    0    0    0   56    0   56    0

>  <minimizedAffinity>  (4) 
-6.94266

>  <CNNscore>  (4) 
0.5954145193

>  <CNNaffinity>  (4) 
4.4700117111

>  <CNN_VS>  (4) 
2.6615099907

>  <CNNaffinity_variance>  (4) 
0.0939729884

$$$$
5
     RDKit          3D

 43 45  0  0  0  0  0  0  0  0999 V2000
   24.6626   71.1355   -0.0493 P   0  0  2  0  0  0  0  0  0  0  0  0
   25.9249   70.2553   -0.5500 O   0  0  0  0  0  0  0  0  0  0  0  0
   24.8763   72.6206   -0.0734 O   0  0  0  0  0  0  0  0  0  0  0  0
   24.2950   70.5019    1.3934 O   0  0  0  0  0  0  0  0  0  0  0  0
   24.5002   71.2913    2.5506 C   0  0  0  0  0  0  0  0  0  0  0  0
   23.4682   71.9574    4.6168 O   0  0  0  0  0  0  0  0  0  0  0  0
   20.8836   71.9985    3.0970 O   0  0  0  0  0  0  0  0  0  0  0  0
   21.5510   74.6401    3.2090 O   0  0  0  0  0  0  0  0  0  0  0  0
   22.1942   72.3602    2.6609 C   0  0  1  0  0  0  0  0  0  0  0  0
   22.5965   73.6919    3.2584 C   0  0  2  0  0  0  0  0  0  0  0  0
   23.1860   71.4061    3.3123 C   0  0  1  0  0  0  0  0  0  0  0  0
   22.9653   73.3015    4.6795 C   0  0  2  0  0  0  0  0  0  0  0  0
   20.2324   72.5943    2.6938 H   0  0  0  0  0  0  0  0  0  0  0  0
   21.3537   74.8559    2.2836 H   0  0  0  0  0  0  0  0  0  0  0  0
   22.4462   75.7494    5.9889 O   0  0  0  0  0  0  0  0  0  0  0  0
   26.9270   76.4872    6.7779 O   0  0  0  0  0  0  0  0  0  0  0  0
   23.9776   74.1533    5.2366 N   0  0  0  0  0  0  0  0  0  0  0  0
   24.6785   76.1151    6.3797 N   0  0  0  0  0  0  0  0  0  0  0  0
   23.6106   75.3623    5.8736 C   0  0  0  0  0  0  0  0  0  0  0  0
   25.3156   73.7883    5.1507 C   0  0  0  0  0  0  0  0  0  0  0  0
   26.3223   74.5162    5.6380 C   0  0  0  0  0  0  0  0  0  0  0  0
   26.0248   75.7938    6.3179 C   0  0  0  0  0  0  0  0  0  0  0  0
   24.4479   76.9619    6.8258 H   0  0  0  0  0  0  0  0  0  0  0  0
   23.4588   70.6130   -0.9931 O   0  0  0  0  0  0  0  0  0  0  0  0
   21.8549   70.7408   -0.8359 P   0  0  2  0  0  0  0  0  0  0  0  0
   21.6486   72.2832   -0.3900 O   0  0  0  0  0  0  0  0  0  0  0  0
   21.2463   69.7392    0.1025 O   0  0  0  0  0  0  0  0  0  0  0  0
   21.2891   70.6741   -2.3451 O   0  0  0  0  0  0  0  0  0  0  0  0
   21.4570   72.5305   -3.8061 O   0  0  0  0  0  0  0  0  0  0  0  0
   18.4720   70.3121   -5.6052 O   0  0  0  0  0  0  0  0  0  0  0  0
   18.5310   70.6365   -2.7025 O   0  0  0  0  0  0  0  0  0  0  0  0
   21.1528   70.3341   -6.7294 O   0  0  0  0  0  0  0  0  0  0  0  0
   19.6624   70.5211   -4.8455 C   0  0  2  0  0  0  0  0  0  0  0  0
   19.3416   71.3688   -3.6143 C   0  0  2  0  0  0  0  0  0  0  0  0
   20.6735   71.2425   -5.7396 C   0  0  1  0  0  0  0  0  0  0  0  0
   20.6225   71.8056   -2.9019 C   0  0  1  0  0  0  0  0  0  0  0  0
   21.8624   71.7572   -4.9334 C   0  0  1  0  0  0  0  0  0  0  0  0
   17.8146   69.8550   -5.0573 H   0  0  0  0  0  0  0  0  0  0  0  0
   17.7166   70.3559   -3.1479 H   0  0  0  0  0  0  0  0  0  0  0  0
   20.4058   69.9989   -7.2495 H   0  0  0  0  0  0  0  0  0  0  0  0
   21.8878   73.7505   -6.1693 O   0  0  0  0  0  0  0  0  0  0  0  0
   23.8609   72.6254   -5.9695 O   0  0  0  0  0  0  0  0  0  0  0  0
   22.6662   72.7286   -5.7350 C   0  0  0  0  0  0  0  0  0  0  0  0
  1  4  1  0
  1 24  1  0
  1  2  1  6
  1  3  2  0
 25 28  1  0
 25 24  1  0
 25 26  1  1
 25 27  2  0
  6 11  1  0
  6 12  1  0
 29 36  1  0
 29 37  1  0
  9  7  1  1
  7 13  1  0
 10  8  1  1
  8 14  1  0
  4  5  1  0
 36 28  1  6
 33 30  1  6
 30 38  1  0
 34 31  1  1
 31 39  1  0
 35 32  1  6
 32 40  1  0
 41 43  1  0
 15 19  2  0
 42 43  2  0
 16 22  2  0
 12 17  1  6
 17 19  1  0
 17 20  1  0
 18 19  1  0
 18 22  1  0
 18 23  1  0
  9 10  1  0
  9 11  1  0
 10 12  1  0
 11  5  1  6
 33 34  1  0
 33 35  1  0
 34 36  1  0
 35 37  1  0
 37 43  1  6
 20 21  2  0
 21 22  1  0
M  CHG  3   2  -1  26  -1  41  -1
M  END
>  <COMPND>  (5) 
    udp_gluA.pdb 

>  <AUTHOR>  (5) 
    GENERATED BY OPEN BABEL 3.1.1

>  <MASTER>  (5) 
        0    0    0    0    0    0    0    0   56    0   56    0

>  <minimizedAffinity>  (5) 
-7.06993

>  <CNNscore>  (5) 
0.5218363404

>  <CNNaffinity>  (5) 
4.1895327568

>  <CNN_VS>  (5) 
2.1862504482

>  <CNNaffinity_variance>  (5) 
0.0751425549

$$$$
6
     RDKit          3D

 43 45  0  0  0  0  0  0  0  0999 V2000
   21.5228   70.5203   -0.5304 P   0  0  2  0  0  0  0  0  0  0  0  0
   21.5853   69.3705    0.6067 O   0  0  0  0  0  0  0  0  0  0  0  0
   20.9755   71.8390   -0.0685 O   0  0  0  0  0  0  0  0  0  0  0  0
   20.7258   69.8172   -1.7504 O   0  0  0  0  0  0  0  0  0  0  0  0
   20.3195   70.6195   -2.8439 C   0  0  0  0  0  0  0  0  0  0  0  0
   18.4128   71.7530   -3.7699 O   0  0  0  0  0  0  0  0  0  0  0  0
   16.9253   70.8540   -1.3264 O   0  0  0  0  0  0  0  0  0  0  0  0
   16.0996   69.0702   -3.2165 O   0  0  0  0  0  0  0  0  0  0  0  0
   17.9374   70.1741   -2.0693 C   0  0  1  0  0  0  0  0  0  0  0  0
   17.3724   69.6609   -3.3768 C   0  0  2  0  0  0  0  0  0  0  0  0
   18.9478   71.2098   -2.5435 C   0  0  1  0  0  0  0  0  0  0  0  0
   17.3287   70.9245   -4.2191 C   0  0  2  0  0  0  0  0  0  0  0  0
   16.2680   70.2126   -1.0129 H   0  0  0  0  0  0  0  0  0  0  0  0
   16.1808   68.2698   -2.6736 H   0  0  0  0  0  0  0  0  0  0  0  0
   16.3132   72.5566   -6.2883 O   0  0  0  0  0  0  0  0  0  0  0  0
   18.0293   69.7960   -9.5560 O   0  0  0  0  0  0  0  0  0  0  0  0
   17.4955   70.6558   -5.6194 N   0  0  0  0  0  0  0  0  0  0  0  0
   17.1680   71.1796   -7.9138 N   0  0  0  0  0  0  0  0  0  0  0  0
   16.9457   71.5393   -6.5781 C   0  0  0  0  0  0  0  0  0  0  0  0
   18.1981   69.5296   -6.0305 C   0  0  0  0  0  0  0  0  0  0  0  0
   18.4019   69.2000   -7.3075 C   0  0  0  0  0  0  0  0  0  0  0  0
   17.8595   70.0697   -8.3718 C   0  0  0  0  0  0  0  0  0  0  0  0
   16.7929   71.7783   -8.5995 H   0  0  0  0  0  0  0  0  0  0  0  0
   23.0440   70.5759   -1.0743 O   0  0  0  0  0  0  0  0  0  0  0  0
   24.3542   71.3198   -0.4882 P   0  0  2  0  0  0  0  0  0  0  0  0
   24.5068   72.6127   -1.4502 O   0  0  0  0  0  0  0  0  0  0  0  0
   25.5770   70.4513   -0.4209 O   0  0  0  0  0  0  0  0  0  0  0  0
   23.8820   71.9223    0.9318 O   0  0  0  0  0  0  0  0  0  0  0  0
   25.4557   71.2360    2.5633 O   0  0  0  0  0  0  0  0  0  0  0  0
   22.8013   73.4437    4.8321 O   0  0  0  0  0  0  0  0  0  0  0  0
   21.8252   71.6101    2.7780 O   0  0  0  0  0  0  0  0  0  0  0  0
   25.3876   74.5603    4.1146 O   0  0  0  0  0  0  0  0  0  0  0  0
   23.5331   73.0916    3.6581 C   0  0  2  0  0  0  0  0  0  0  0  0
   23.1707   71.6671    3.2372 C   0  0  2  0  0  0  0  0  0  0  0  0
   25.0251   73.1869    3.9845 C   0  0  1  0  0  0  0  0  0  0  0  0
   24.0977   71.1725    2.1260 C   0  0  1  0  0  0  0  0  0  0  0  0
   25.8771   72.5596    2.8849 C   0  0  1  0  0  0  0  0  0  0  0  0
   21.8501   73.3903    4.6487 H   0  0  0  0  0  0  0  0  0  0  0  0
   21.2315   71.9229    3.4781 H   0  0  0  0  0  0  0  0  0  0  0  0
   24.8524   74.9713    4.8113 H   0  0  0  0  0  0  0  0  0  0  0  0
   27.9701   71.5813    2.4799 O   0  0  0  0  0  0  0  0  0  0  0  0
   27.7557   72.8323    4.3742 O   0  0  0  0  0  0  0  0  0  0  0  0
   27.2825   72.3603    3.3513 C   0  0  0  0  0  0  0  0  0  0  0  0
  1  4  1  0
  1 24  1  0
  1  2  1  1
  1  3  2  0
 25 28  1  0
 25 24  1  0
 25 26  1  6
 25 27  2  0
  6 11  1  0
  6 12  1  0
 29 36  1  0
 29 37  1  0
  9  7  1  1
  7 13  1  0
 10  8  1  1
  8 14  1  0
  4  5  1  0
 36 28  1  6
 33 30  1  1
 30 38  1  0
 34 31  1  6
 31 39  1  0
 35 32  1  6
 32 40  1  0
 41 43  1  0
 15 19  2  0
 42 43  2  0
 16 22  2  0
 12 17  1  6
 17 19  1  0
 17 20  1  0
 18 19  1  0
 18 22  1  0
 18 23  1  0
  9 10  1  0
  9 11  1  0
 10 12  1  0
 11  5  1  6
 33 34  1  0
 33 35  1  0
 34 36  1  0
 35 37  1  0
 37 43  1  1
 20 21  2  0
 21 22  1  0
M  CHG  3   2  -1  26  -1  41  -1
M  END
>  <COMPND>  (6) 
    udp_gluA.pdb 

>  <AUTHOR>  (6) 
    GENERATED BY OPEN BABEL 3.1.1

>  <MASTER>  (6) 
        0    0    0    0    0    0    0    0   56    0   56    0

>  <minimizedAffinity>  (6) 
-7.94110

>  <CNNscore>  (6) 
0.5145848989

>  <CNNaffinity>  (6) 
4.3834862709

>  <CNN_VS>  (6) 
2.2556757927

>  <CNNaffinity_variance>  (6) 
0.0495473817

$$$$
7
     RDKit          3D

 43 45  0  0  0  0  0  0  0  0999 V2000
   23.9176   71.9498   -2.6313 P   0  0  2  0  0  0  0  0  0  0  0  0
   24.2677   73.5232   -2.7744 O   0  0  0  0  0  0  0  0  0  0  0  0
   25.0537   71.0177   -2.9351 O   0  0  0  0  0  0  0  0  0  0  0  0
   22.5925   71.7623   -3.5407 O   0  0  0  0  0  0  0  0  0  0  0  0
   22.2188   72.8111   -4.4152 C   0  0  0  0  0  0  0  0  0  0  0  0
   21.1774   70.9353   -5.4990 O   0  0  0  0  0  0  0  0  0  0  0  0
   20.8254   72.7377   -7.8694 O   0  0  0  0  0  0  0  0  0  0  0  0
   18.3479   72.7606   -6.7304 O   0  0  0  0  0  0  0  0  0  0  0  0
   20.7490   73.0492   -6.4781 C   0  0  1  0  0  0  0  0  0  0  0  0
   19.4582   72.5175   -5.8921 C   0  0  2  0  0  0  0  0  0  0  0  0
   21.7958   72.2155   -5.7519 C   0  0  1  0  0  0  0  0  0  0  0  0
   19.7655   71.0372   -5.7433 C   0  0  2  0  0  0  0  0  0  0  0  0
   20.1656   73.2584   -8.3544 H   0  0  0  0  0  0  0  0  0  0  0  0
   18.1930   73.7167   -6.7926 H   0  0  0  0  0  0  0  0  0  0  0  0
   17.2073   69.8588   -5.9514 O   0  0  0  0  0  0  0  0  0  0  0  0
   17.1448   68.7683   -1.4735 O   0  0  0  0  0  0  0  0  0  0  0  0
   19.0576   70.4379   -4.6477 N   0  0  0  0  0  0  0  0  0  0  0  0
   17.1781   69.3177   -3.7207 N   0  0  0  0  0  0  0  0  0  0  0  0
   17.7772   69.8737   -4.8587 C   0  0  0  0  0  0  0  0  0  0  0  0
   19.6316   70.4116   -3.3825 C   0  0  0  0  0  0  0  0  0  0  0  0
   19.0483   69.8779   -2.3074 C   0  0  0  0  0  0  0  0  0  0  0  0
   17.7091   69.2683   -2.4420 C   0  0  0  0  0  0  0  0  0  0  0  0
   16.2855   68.9207   -3.8425 H   0  0  0  0  0  0  0  0  0  0  0  0
   23.3424   71.8416   -1.1245 O   0  0  0  0  0  0  0  0  0  0  0  0
   23.8276   70.9524    0.1355 P   0  0  2  0  0  0  0  0  0  0  0  0
   25.3045   70.4591   -0.3067 O   0  0  0  0  0  0  0  0  0  0  0  0
   22.8882   69.8402    0.5024 O   0  0  0  0  0  0  0  0  0  0  0  0
   24.0915   72.0220    1.3139 O   0  0  0  0  0  0  0  0  0  0  0  0
   24.5455   74.3433    1.1938 O   0  0  0  0  0  0  0  0  0  0  0  0
   26.6856   73.2408    4.5513 O   0  0  0  0  0  0  0  0  0  0  0  0
   26.6966   71.5520    2.1675 O   0  0  0  0  0  0  0  0  0  0  0  0
   24.1675   74.6667    4.8290 O   0  0  0  0  0  0  0  0  0  0  0  0
   25.6151   73.1765    3.6089 C   0  0  2  0  0  0  0  0  0  0  0  0
   26.1748   72.8748    2.2185 C   0  0  2  0  0  0  0  0  0  0  0  0
   24.8998   74.5293    3.6128 C   0  0  1  0  0  0  0  0  0  0  0  0
   25.0923   73.0248    1.1487 C   0  0  1  0  0  0  0  0  0  0  0  0
   23.9282   74.6491    2.4422 C   0  0  1  0  0  0  0  0  0  0  0  0
   27.1549   72.3918    4.5662 H   0  0  0  0  0  0  0  0  0  0  0  0
   27.3838   71.4497    2.8439 H   0  0  0  0  0  0  0  0  0  0  0  0
   24.7744   74.5922    5.5820 H   0  0  0  0  0  0  0  0  0  0  0  0
   22.6100   76.4215    3.2310 O   0  0  0  0  0  0  0  0  0  0  0  0
   23.8642   76.8077    1.3664 O   0  0  0  0  0  0  0  0  0  0  0  0
   23.4880   76.0653    2.2609 C   0  0  0  0  0  0  0  0  0  0  0  0
  1  4  1  0
  1 24  1  0
  1  2  1  1
  1  3  2  0
 25 28  1  0
 25 24  1  0
 25 26  1  6
 25 27  2  0
  6 11  1  0
  6 12  1  0
 29 36  1  0
 29 37  1  0
  9  7  1  6
  7 13  1  0
 10  8  1  6
  8 14  1  0
  4  5  1  0
 36 28  1  1
 33 30  1  1
 30 38  1  0
 34 31  1  1
 31 39  1  0
 35 32  1  1
 32 40  1  0
 41 43  1  0
 15 19  2  0
 42 43  2  0
 16 22  2  0
 12 17  1  1
 17 19  1  0
 17 20  1  0
 18 19  1  0
 18 22  1  0
 18 23  1  0
  9 10  1  0
  9 11  1  0
 10 12  1  0
 11  5  1  1
 33 34  1  0
 33 35  1  0
 34 36  1  0
 35 37  1  0
 37 43  1  6
 20 21  2  0
 21 22  1  0
M  CHG  3   2  -1  26  -1  41  -1
M  END
>  <COMPND>  (7) 
    udp_gluA.pdb 

>  <AUTHOR>  (7) 
    GENERATED BY OPEN BABEL 3.1.1

>  <MASTER>  (7) 
        0    0    0    0    0    0    0    0   56    0   56    0

>  <minimizedAffinity>  (7) 
-7.06100

>  <CNNscore>  (7) 
0.4997437000

>  <CNNaffinity>  (7) 
4.2598943710

>  <CNN_VS>  (7) 
2.1288554668

>  <CNNaffinity_variance>  (7) 
0.1056247503

$$$$
8
     RDKit          3D

 43 45  0  0  0  0  0  0  0  0999 V2000
   22.4023   73.3904   -5.5444 P   0  0  2  0  0  0  0  0  0  0  0  0
   23.8103   72.7134   -5.9665 O   0  0  0  0  0  0  0  0  0  0  0  0
   22.1452   74.7427   -6.1418 O   0  0  0  0  0  0  0  0  0  0  0  0
   22.4096   73.3263   -3.9277 O   0  0  0  0  0  0  0  0  0  0  0  0
   21.3585   73.9593   -3.2213 C   0  0  0  0  0  0  0  0  0  0  0  0
   21.1644   71.7920   -2.2001 O   0  0  0  0  0  0  0  0  0  0  0  0
   18.3470   72.5670   -1.5270 O   0  0  0  0  0  0  0  0  0  0  0  0
   19.6536   72.9612    0.8338 O   0  0  0  0  0  0  0  0  0  0  0  0
   19.5235   73.3753   -1.5587 C   0  0  1  0  0  0  0  0  0  0  0  0
   20.3988   73.0740   -0.3606 C   0  0  2  0  0  0  0  0  0  0  0  0
   20.3909   72.8973   -2.7152 C   0  0  1  0  0  0  0  0  0  0  0  0
   21.0517   71.7643   -0.7684 C   0  0  2  0  0  0  0  0  0  0  0  0
   17.7769   72.8536   -0.7959 H   0  0  0  0  0  0  0  0  0  0  0  0
   19.2585   73.8207    1.0507 H   0  0  0  0  0  0  0  0  0  0  0  0
   21.9186   69.4588    0.6136 O   0  0  0  0  0  0  0  0  0  0  0  0
   26.0934   71.2594    1.3702 O   0  0  0  0  0  0  0  0  0  0  0  0
   22.3601   71.6039   -0.2000 N   0  0  0  0  0  0  0  0  0  0  0  0
   23.9967   70.3582    0.9900 N   0  0  0  0  0  0  0  0  0  0  0  0
   22.6948   70.4059    0.4745 C   0  0  0  0  0  0  0  0  0  0  0  0
   23.2960   72.6247   -0.3147 C   0  0  0  0  0  0  0  0  0  0  0  0
   24.5332   72.5646    0.1818 C   0  0  0  0  0  0  0  0  0  0  0  0
   24.9625   71.3477    0.9017 C   0  0  0  0  0  0  0  0  0  0  0  0
   24.2522   69.5349    1.4656 H   0  0  0  0  0  0  0  0  0  0  0  0
   21.3204   72.2593   -5.9481 O   0  0  0  0  0  0  0  0  0  0  0  0
   20.8936   71.6651   -7.3897 P   0  0  2  0  0  0  0  0  0  0  0  0
   21.6111   70.2143   -7.4190 O   0  0  0  0  0  0  0  0  0  0  0  0
   21.2440   72.5518   -8.5495 O   0  0  0  0  0  0  0  0  0  0  0  0
   19.3201   71.3384   -7.2483 O   0  0  0  0  0  0  0  0  0  0  0  0
   18.6882   69.5953   -5.7747 O   0  0  0  0  0  0  0  0  0  0  0  0
   15.2127   70.1737   -7.9321 O   0  0  0  0  0  0  0  0  0  0  0  0
   17.8074   70.1800   -9.2745 O   0  0  0  0  0  0  0  0  0  0  0  0
   15.4243   71.1737   -5.2107 O   0  0  0  0  0  0  0  0  0  0  0  0
   16.4379   70.5569   -7.3076 C   0  0  2  0  0  0  0  0  0  0  0  0
   17.5952   69.7734   -7.9275 C   0  0  2  0  0  0  0  0  0  0  0  0
   16.3246   70.2461   -5.8135 C   0  0  1  0  0  0  0  0  0  0  0  0
   18.8857   69.9845   -7.1344 C   0  0  1  0  0  0  0  0  0  0  0  0
   17.6780   70.3570   -5.1172 C   0  0  1  0  0  0  0  0  0  0  0  0
   15.2613   70.3619   -8.8826 H   0  0  0  0  0  0  0  0  0  0  0  0
   16.9924   70.0490   -9.7835 H   0  0  0  0  0  0  0  0  0  0  0  0
   14.5591   71.1133   -5.6449 H   0  0  0  0  0  0  0  0  0  0  0  0
   16.5370   68.9442   -3.6327 O   0  0  0  0  0  0  0  0  0  0  0  0
   18.4494   69.9258   -2.8721 O   0  0  0  0  0  0  0  0  0  0  0  0
   17.6264   69.7422   -3.7565 C   0  0  0  0  0  0  0  0  0  0  0  0
  1  4  1  0
  1 24  1  0
  1  2  1  6
  1  3  2  0
 25 28  1  0
 25 24  1  0
 25 26  1  6
 25 27  2  0
  6 11  1  0
  6 12  1  0
 29 36  1  0
 29 37  1  0
  9  7  1  1
  7 13  1  0
 10  8  1  1
  8 14  1  0
  4  5  1  0
 36 28  1  1
 33 30  1  6
 30 38  1  0
 34 31  1  6
 31 39  1  0
 35 32  1  1
 32 40  1  0
 41 43  1  0
 15 19  2  0
 42 43  2  0
 16 22  2  0
 12 17  1  1
 17 19  1  0
 17 20  1  0
 18 19  1  0
 18 22  1  0
 18 23  1  0
  9 10  1  0
  9 11  1  0
 10 12  1  0
 11  5  1  1
 33 34  1  0
 33 35  1  0
 34 36  1  0
 35 37  1  0
 37 43  1  1
 20 21  2  0
 21 22  1  0
M  CHG  3   2  -1  26  -1  41  -1
M  END
>  <COMPND>  (8) 
    udp_gluA.pdb 

>  <AUTHOR>  (8) 
    GENERATED BY OPEN BABEL 3.1.1

>  <MASTER>  (8) 
        0    0    0    0    0    0    0    0   56    0   56    0

>  <minimizedAffinity>  (8) 
-7.92766

>  <CNNscore>  (8) 
0.4643889964

>  <CNNaffinity>  (8) 
4.4405851364

>  <CNN_VS>  (8) 
2.0621588230

>  <CNNaffinity_variance>  (8) 
0.1686759740

$$$$
9
     RDKit          3D

 43 45  0  0  0  0  0  0  0  0999 V2000
   21.9726   71.4536   -3.8577 P   0  0  2  0  0  0  0  0  0  0  0  0
   22.6876   70.1089   -3.3105 O   0  0  0  0  0  0  0  0  0  0  0  0
   22.9084   72.4900   -4.4071 O   0  0  0  0  0  0  0  0  0  0  0  0
   21.0438   71.9303   -2.6216 O   0  0  0  0  0  0  0  0  0  0  0  0
   21.6562   72.5986   -1.5341 C   0  0  0  0  0  0  0  0  0  0  0  0
   23.7867   71.9394   -0.6374 O   0  0  0  0  0  0  0  0  0  0  0  0
   22.2388   70.2891    1.3303 O   0  0  0  0  0  0  0  0  0  0  0  0
   22.9134   72.4871    2.7964 O   0  0  0  0  0  0  0  0  0  0  0  0
   21.9228   71.5662    0.7758 C   0  0  1  0  0  0  0  0  0  0  0  0
   22.7937   72.6375    1.3973 C   0  0  2  0  0  0  0  0  0  0  0  0
   22.3892   71.5776   -0.6735 C   0  0  1  0  0  0  0  0  0  0  0  0
   24.1126   72.4317    0.6721 C   0  0  2  0  0  0  0  0  0  0  0  0
   21.9502   70.2578    2.2562 H   0  0  0  0  0  0  0  0  0  0  0  0
   22.0477   72.6279    3.2120 H   0  0  0  0  0  0  0  0  0  0  0  0
   25.8726   73.4425    2.6361 O   0  0  0  0  0  0  0  0  0  0  0  0
   26.9324   77.1135    0.0584 O   0  0  0  0  0  0  0  0  0  0  0  0
   24.8613   73.6494    0.5401 N   0  0  0  0  0  0  0  0  0  0  0  0
   26.3980   75.2704    1.3508 N   0  0  0  0  0  0  0  0  0  0  0  0
   25.7176   74.0683    1.5857 C   0  0  0  0  0  0  0  0  0  0  0  0
   24.7449   74.4135   -0.6147 C   0  0  0  0  0  0  0  0  0  0  0  0
   25.3999   75.5571   -0.8242 C   0  0  0  0  0  0  0  0  0  0  0  0
   26.3143   76.0655    0.2193 C   0  0  0  0  0  0  0  0  0  0  0  0
   26.9986   75.5835    2.0654 H   0  0  0  0  0  0  0  0  0  0  0  0
   20.8972   70.8853   -4.9223 O   0  0  0  0  0  0  0  0  0  0  0  0
   20.5729   71.3285   -6.4428 P   0  0  2  0  0  0  0  0  0  0  0  0
   21.2545   70.1539   -7.3238 O   0  0  0  0  0  0  0  0  0  0  0  0
   21.0370   72.7127   -6.7931 O   0  0  0  0  0  0  0  0  0  0  0  0
   18.9857   71.0926   -6.6082 O   0  0  0  0  0  0  0  0  0  0  0  0
   18.0239   69.3401   -5.3383 O   0  0  0  0  0  0  0  0  0  0  0  0
   14.9922   70.2050   -8.0082 O   0  0  0  0  0  0  0  0  0  0  0  0
   17.7705   70.1010   -8.9053 O   0  0  0  0  0  0  0  0  0  0  0  0
   14.8021   71.0932   -5.2467 O   0  0  0  0  0  0  0  0  0  0  0  0
   16.1154   70.4906   -7.1747 C   0  0  2  0  0  0  0  0  0  0  0  0
   17.3156   69.6606   -7.6310 C   0  0  2  0  0  0  0  0  0  0  0  0
   15.7385   70.1345   -5.7349 C   0  0  1  0  0  0  0  0  0  0  0  0
   18.4656   69.7645   -6.6283 C   0  0  1  0  0  0  0  0  0  0  0  0
   16.9612   70.1381   -4.8218 C   0  0  1  0  0  0  0  0  0  0  0  0
   15.2084   70.4235   -8.9285 H   0  0  0  0  0  0  0  0  0  0  0  0
   17.0457   70.0380   -9.5464 H   0  0  0  0  0  0  0  0  0  0  0  0
   14.0191   71.1010   -5.8192 H   0  0  0  0  0  0  0  0  0  0  0  0
   17.6251   68.5981   -3.1820 O   0  0  0  0  0  0  0  0  0  0  0  0
   15.6594   69.7010   -2.8379 O   0  0  0  0  0  0  0  0  0  0  0  0
   16.6508   69.4797   -3.5170 C   0  0  0  0  0  0  0  0  0  0  0  0
  1  4  1  0
  1 24  1  0
  1  2  1  1
  1  3  2  0
 25 28  1  0
 25 24  1  0
 25 26  1  6
 25 27  2  0
  6 11  1  0
  6 12  1  0
 29 36  1  0
 29 37  1  0
  9  7  1  1
  7 13  1  0
 10  8  1  1
  8 14  1  0
  4  5  1  0
 36 28  1  1
 33 30  1  6
 30 38  1  0
 34 31  1  6
 31 39  1  0
 35 32  1  1
 32 40  1  0
 41 43  1  0
 15 19  2  0
 42 43  2  0
 16 22  2  0
 12 17  1  6
 17 19  1  0
 17 20  1  0
 18 19  1  0
 18 22  1  0
 18 23  1  0
  9 10  1  0
  9 11  1  0
 10 12  1  0
 11  5  1  6
 33 34  1  0
 33 35  1  0
 34 36  1  0
 35 37  1  0
 37 43  1  1
 20 21  2  0
 21 22  1  0
M  CHG  3   2  -1  26  -1  41  -1
M  END
>  <COMPND>  (9) 
    udp_gluA.pdb 

>  <AUTHOR>  (9) 
    GENERATED BY OPEN BABEL 3.1.1

>  <MASTER>  (9) 
        0    0    0    0    0    0    0    0   56    0   56    0

>  <minimizedAffinity>  (9) 
-7.05121

>  <CNNscore>  (9) 
0.4516362548

>  <CNNaffinity>  (9) 
4.3913207054

>  <CNN_VS>  (9) 
1.9832795858

>  <CNNaffinity_variance>  (9) 
0.0493448600

$$$$
10
     RDKit          3D

 43 45  0  0  0  0  0  0  0  0999 V2000
   22.7084   72.8675   -3.7845 P   0  0  2  0  0  0  0  0  0  0  0  0
   23.9837   72.4612   -4.6941 O   0  0  0  0  0  0  0  0  0  0  0  0
   22.7098   74.2836   -3.2880 O   0  0  0  0  0  0  0  0  0  0  0  0
   22.6653   71.7224   -2.6422 O   0  0  0  0  0  0  0  0  0  0  0  0
   23.4910   71.8734   -1.5021 C   0  0  0  0  0  0  0  0  0  0  0  0
   24.2227   70.7680    0.5030 O   0  0  0  0  0  0  0  0  0  0  0  0
   21.5060   69.5006    0.5735 O   0  0  0  0  0  0  0  0  0  0  0  0
   21.2773   71.5029    2.4105 O   0  0  0  0  0  0  0  0  0  0  0  0
   21.8797   70.8144    0.1577 C   0  0  1  0  0  0  0  0  0  0  0  0
   22.2079   71.6717    1.3617 C   0  0  2  0  0  0  0  0  0  0  0  0
   23.2282   70.7196   -0.5429 C   0  0  1  0  0  0  0  0  0  0  0  0
   23.5980   71.1811    1.7288 C   0  0  2  0  0  0  0  0  0  0  0  0
   20.6472   69.5357    1.0239 H   0  0  0  0  0  0  0  0  0  0  0  0
   20.4085   71.8303    2.1277 H   0  0  0  0  0  0  0  0  0  0  0  0
   23.4609   71.9003    4.4565 O   0  0  0  0  0  0  0  0  0  0  0  0
   26.7133   75.1278    3.9572 O   0  0  0  0  0  0  0  0  0  0  0  0
   24.3976   72.2059    2.3381 N   0  0  0  0  0  0  0  0  0  0  0  0
   25.0802   73.5078    4.2050 N   0  0  0  0  0  0  0  0  0  0  0  0
   24.2512   72.4893    3.7166 C   0  0  0  0  0  0  0  0  0  0  0  0
   25.3150   72.9163    1.5734 C   0  0  0  0  0  0  0  0  0  0  0  0
   26.0983   73.8843    2.0531 C   0  0  0  0  0  0  0  0  0  0  0  0
   26.0070   74.2428    3.4837 C   0  0  0  0  0  0  0  0  0  0  0  0
   24.9948   73.7244    5.1616 H   0  0  0  0  0  0  0  0  0  0  0  0
   21.4530   72.4863   -4.7287 O   0  0  0  0  0  0  0  0  0  0  0  0
   19.8876   72.8761   -4.6219 P   0  0  2  0  0  0  0  0  0  0  0  0
   19.8637   74.4342   -5.0603 O   0  0  0  0  0  0  0  0  0  0  0  0
   19.2750   72.6022   -3.2789 O   0  0  0  0  0  0  0  0  0  0  0  0
   19.1872   72.0971   -5.8487 O   0  0  0  0  0  0  0  0  0  0  0  0
   18.8120   69.7898   -5.4684 O   0  0  0  0  0  0  0  0  0  0  0  0
   17.9669   70.1260   -9.4984 O   0  0  0  0  0  0  0  0  0  0  0  0
   20.2641   71.5150   -8.3462 O   0  0  0  0  0  0  0  0  0  0  0  0
   15.8060   69.8704   -7.5707 O   0  0  0  0  0  0  0  0  0  0  0  0
   18.0417   70.5637   -8.1417 C   0  0  2  0  0  0  0  0  0  0  0  0
   19.4959   70.5257   -7.6711 C   0  0  2  0  0  0  0  0  0  0  0  0
   17.1830   69.6230   -7.2933 C   0  0  1  0  0  0  0  0  0  0  0  0
   19.5895   70.7653   -6.1636 C   0  0  1  0  0  0  0  0  0  0  0  0
   17.4267   69.8389   -5.8024 C   0  0  1  0  0  0  0  0  0  0  0  0
   18.5052   70.7090  -10.0566 H   0  0  0  0  0  0  0  0  0  0  0  0
   20.2089   71.3692   -9.3033 H   0  0  0  0  0  0  0  0  0  0  0  0
   15.6376   69.7366   -8.5165 H   0  0  0  0  0  0  0  0  0  0  0  0
   17.0476   68.9223   -3.6769 O   0  0  0  0  0  0  0  0  0  0  0  0
   16.2727   67.7462   -5.4701 O   0  0  0  0  0  0  0  0  0  0  0  0
   16.8488   68.7170   -5.0026 C   0  0  0  0  0  0  0  0  0  0  0  0
  1  4  1  0
  1 24  1  0
  1  2  1  6
  1  3  2  0
 25 28  1  0
 25 24  1  0
 25 26  1  6
 25 27  2  0
  6 11  1  0
  6 12  1  0
 29 36  1  0
 29 37  1  0
  9  7  1  1
  7 13  1  0
 10  8  1  1
  8 14  1  0
  4  5  1  0
 36 28  1  6
 33 30  1  6
 30 38  1  0
 34 31  1  6
 31 39  1  0
 35 32  1  1
 32 40  1  0
 41 43  1  0
 15 19  2  0
 42 43  2  0
 16 22  2  0
 12 17  1  6
 17 19  1  0
 17 20  1  0
 18 19  1  0
 18 22  1  0
 18 23  1  0
  9 10  1  0
  9 11  1  0
 10 12  1  0
 11  5  1  6
 33 34  1  0
 33 35  1  0
 34 36  1  0
 35 37  1  0
 37 43  1  1
 20 21  2  0
 21 22  1  0
M  CHG  3   2  -1  26  -1  41  -1
M  END
>  <COMPND>  (10) 
    udp_gluA.pdb 

>  <AUTHOR>  (10) 
    GENERATED BY OPEN BABEL 3.1.1

>  <MASTER>  (10) 
        0    0    0    0    0    0    0    0   56    0   56    0

>  <minimizedAffinity>  (10) 
-8.01590

>  <CNNscore>  (10) 
0.4319157600

>  <CNNaffinity>  (10) 
4.1879134178

>  <CNN_VS>  (10) 
1.8088258505

>  <CNNaffinity_variance>  (10) 
0.2237712443

$$$$
11
     RDKit          3D

 43 45  0  0  0  0  0  0  0  0999 V2000
   23.9261   72.5503   -2.7946 P   0  0  2  0  0  0  0  0  0  0  0  0
   25.1170   72.5978   -3.8893 O   0  0  0  0  0  0  0  0  0  0  0  0
   23.8109   73.7716   -1.9303 O   0  0  0  0  0  0  0  0  0  0  0  0
   24.1735   71.1562   -2.0116 O   0  0  0  0  0  0  0  0  0  0  0  0
   24.7820   71.1971   -0.7339 C   0  0  0  0  0  0  0  0  0  0  0  0
   24.6190   70.3758    1.5193 O   0  0  0  0  0  0  0  0  0  0  0  0
   21.8074   69.5918    0.8324 O   0  0  0  0  0  0  0  0  0  0  0  0
   21.4559   71.9073    2.2291 O   0  0  0  0  0  0  0  0  0  0  0  0
   22.5571   70.7305    0.4085 C   0  0  1  0  0  0  0  0  0  0  0  0
   22.6754   71.7307    1.5390 C   0  0  2  0  0  0  0  0  0  0  0  0
   24.0034   70.2954    0.2155 C   0  0  1  0  0  0  0  0  0  0  0  0
   23.7521   71.1007    2.4060 C   0  0  2  0  0  0  0  0  0  0  0  0
   20.8797   69.8451    0.9623 H   0  0  0  0  0  0  0  0  0  0  0  0
   20.8036   72.3113    1.6348 H   0  0  0  0  0  0  0  0  0  0  0  0
   23.0170   72.2085    4.8978 O   0  0  0  0  0  0  0  0  0  0  0  0
   26.7928   74.8477    5.0445 O   0  0  0  0  0  0  0  0  0  0  0  0
   24.5246   72.0793    3.1177 N   0  0  0  0  0  0  0  0  0  0  0  0
   24.8978   73.5227    4.9680 N   0  0  0  0  0  0  0  0  0  0  0  0
   24.0661   72.5714    4.3626 C   0  0  0  0  0  0  0  0  0  0  0  0
   25.7219   72.5400    2.5836 C   0  0  0  0  0  0  0  0  0  0  0  0
   26.5038   73.4469    3.1725 C   0  0  0  0  0  0  0  0  0  0  0  0
   26.0967   74.0123    4.4756 C   0  0  0  0  0  0  0  0  0  0  0  0
   24.5984   73.8815    5.8346 H   0  0  0  0  0  0  0  0  0  0  0  0
   22.6197   72.2356   -3.6930 O   0  0  0  0  0  0  0  0  0  0  0  0
   21.9575   73.0475   -4.9243 P   0  0  2  0  0  0  0  0  0  0  0  0
   22.6687   72.3940   -6.2233 O   0  0  0  0  0  0  0  0  0  0  0  0
   22.0998   74.5388   -4.8260 O   0  0  0  0  0  0  0  0  0  0  0  0
   20.4332   72.5232   -4.9876 O   0  0  0  0  0  0  0  0  0  0  0  0
   19.9793   70.3483   -4.1671 O   0  0  0  0  0  0  0  0  0  0  0  0
   16.5216   71.1944   -6.2640 O   0  0  0  0  0  0  0  0  0  0  0  0
   19.1328   71.9020   -7.3665 O   0  0  0  0  0  0  0  0  0  0  0  0
   16.5312   71.3074   -3.3592 O   0  0  0  0  0  0  0  0  0  0  0  0
   17.6721   71.4927   -5.4731 C   0  0  2  0  0  0  0  0  0  0  0  0
   18.9342   71.0731   -6.2271 C   0  0  2  0  0  0  0  0  0  0  0  0
   17.5556   70.7187   -4.1581 C   0  0  1  0  0  0  0  0  0  0  0  0
   20.1658   71.1632   -5.3250 C   0  0  1  0  0  0  0  0  0  0  0  0
   18.8646   70.7515   -3.3746 C   0  0  1  0  0  0  0  0  0  0  0  0
   16.5736   71.6753   -7.1050 H   0  0  0  0  0  0  0  0  0  0  0  0
   18.3549   71.8499   -7.9432 H   0  0  0  0  0  0  0  0  0  0  0  0
   15.6926   71.2929   -3.8465 H   0  0  0  0  0  0  0  0  0  0  0  0
   17.9029   68.7968   -2.5052 O   0  0  0  0  0  0  0  0  0  0  0  0
   19.5894   69.7501   -1.3025 O   0  0  0  0  0  0  0  0  0  0  0  0
   18.8507   69.7392   -2.2758 C   0  0  0  0  0  0  0  0  0  0  0  0
  1  4  1  0
  1 24  1  0
  1  2  1  6
  1  3  2  0
 25 28  1  0
 25 24  1  0
 25 26  1  6
 25 27  2  0
  6 11  1  0
  6 12  1  0
 29 36  1  0
 29 37  1  0
  9  7  1  1
  7 13  1  0
 10  8  1  1
  8 14  1  0
  4  5  1  0
 36 28  1  1
 33 30  1  6
 30 38  1  0
 34 31  1  6
 31 39  1  0
 35 32  1  1
 32 40  1  0
 41 43  1  0
 15 19  2  0
 42 43  2  0
 16 22  2  0
 12 17  1  6
 17 19  1  0
 17 20  1  0
 18 19  1  0
 18 22  1  0
 18 23  1  0
  9 10  1  0
  9 11  1  0
 10 12  1  0
 11  5  1  6
 33 34  1  0
 33 35  1  0
 34 36  1  0
 35 37  1  0
 37 43  1  1
 20 21  2  0
 21 22  1  0
M  CHG  3   2  -1  26  -1  41  -1
M  END
>  <COMPND>  (11) 
    udp_gluA.pdb 

>  <AUTHOR>  (11) 
    GENERATED BY OPEN BABEL 3.1.1

>  <MASTER>  (11) 
        0    0    0    0    0    0    0    0   56    0   56    0

>  <minimizedAffinity>  (11) 
-7.51633

>  <CNNscore>  (11) 
0.4278180003

>  <CNNaffinity>  (11) 
4.0728635788

>  <CNN_VS>  (11) 
1.7424443960

>  <CNNaffinity_variance>  (11) 
0.3976471722

$$$$
12
     RDKit          3D

 43 45  0  0  0  0  0  0  0  0999 V2000
   17.3211   69.4384   -2.5404 P   0  0  2  0  0  0  0  0  0  0  0  0
   17.1112   68.6349   -3.9294 O   0  0  0  0  0  0  0  0  0  0  0  0
   17.0371   68.6437   -1.2996 O   0  0  0  0  0  0  0  0  0  0  0  0
   16.4396   70.7816   -2.7316 O   0  0  0  0  0  0  0  0  0  0  0  0
   15.3468   70.7508   -3.6313 C   0  0  0  0  0  0  0  0  0  0  0  0
   16.5602   72.4979   -4.7506 O   0  0  0  0  0  0  0  0  0  0  0  0
   13.9109   73.3853   -5.8394 O   0  0  0  0  0  0  0  0  0  0  0  0
   14.9957   72.0301   -7.9424 O   0  0  0  0  0  0  0  0  0  0  0  0
   14.3877   72.0631   -5.5884 C   0  0  1  0  0  0  0  0  0  0  0  0
   15.4004   71.6626   -6.6402 C   0  0  2  0  0  0  0  0  0  0  0  0
   15.2380   72.1021   -4.3260 C   0  0  1  0  0  0  0  0  0  0  0  0
   16.6426   72.4075   -6.1818 C   0  0  2  0  0  0  0  0  0  0  0  0
   13.3649   73.3857   -6.6415 H   0  0  0  0  0  0  0  0  0  0  0  0
   14.2018   71.5286   -8.1879 H   0  0  0  0  0  0  0  0  0  0  0  0
   19.1651   73.6544   -6.4237 O   0  0  0  0  0  0  0  0  0  0  0  0
   21.2215   69.6868   -7.5524 O   0  0  0  0  0  0  0  0  0  0  0  0
   17.8538   71.7240   -6.5376 N   0  0  0  0  0  0  0  0  0  0  0  0
   20.1867   71.6773   -6.9866 N   0  0  0  0  0  0  0  0  0  0  0  0
   19.0686   72.4435   -6.6320 C   0  0  0  0  0  0  0  0  0  0  0  0
   17.8314   70.3572   -6.7869 C   0  0  0  0  0  0  0  0  0  0  0  0
   18.9055   69.6405   -7.1238 C   0  0  0  0  0  0  0  0  0  0  0  0
   20.2139   70.3164   -7.2449 C   0  0  0  0  0  0  0  0  0  0  0  0
   21.0435   72.1566   -7.0606 H   0  0  0  0  0  0  0  0  0  0  0  0
   18.8394   69.9799   -2.6603 O   0  0  0  0  0  0  0  0  0  0  0  0
   19.7309   70.8725   -1.6493 P   0  0  2  0  0  0  0  0  0  0  0  0
   20.3841   69.7699   -0.6604 O   0  0  0  0  0  0  0  0  0  0  0  0
   18.9658   71.9568   -0.9471 O   0  0  0  0  0  0  0  0  0  0  0  0
   20.9650   71.3971   -2.5461 O   0  0  0  0  0  0  0  0  0  0  0  0
   22.5471   72.3796   -1.0830 O   0  0  0  0  0  0  0  0  0  0  0  0
   24.3804   72.8665   -4.7531 O   0  0  0  0  0  0  0  0  0  0  0  0
   21.5139   73.3445   -4.4546 O   0  0  0  0  0  0  0  0  0  0  0  0
   25.3093   70.8110   -2.9193 O   0  0  0  0  0  0  0  0  0  0  0  0
   23.5560   72.2193   -3.7839 C   0  0  2  0  0  0  0  0  0  0  0  0
   22.4186   73.1547   -3.3729 C   0  0  2  0  0  0  0  0  0  0  0  0
   24.4280   71.8779   -2.5736 C   0  0  1  0  0  0  0  0  0  0  0  0
   21.6521   72.5910   -2.1756 C   0  0  1  0  0  0  0  0  0  0  0  0
   23.5807   71.4436   -1.3811 C   0  0  1  0  0  0  0  0  0  0  0  0
   23.8475   73.0931   -5.5316 H   0  0  0  0  0  0  0  0  0  0  0  0
   21.9936   73.7018   -5.2179 H   0  0  0  0  0  0  0  0  0  0  0  0
   25.8543   71.0745   -3.6772 H   0  0  0  0  0  0  0  0  0  0  0  0
   25.2534   70.3827   -0.1250 O   0  0  0  0  0  0  0  0  0  0  0  0
   24.3064   72.2525    0.7730 O   0  0  0  0  0  0  0  0  0  0  0  0
   24.3945   71.4321   -0.1282 C   0  0  0  0  0  0  0  0  0  0  0  0
  1  4  1  0
  1 24  1  0
  1  2  1  6
  1  3  2  0
 25 28  1  0
 25 24  1  0
 25 26  1  1
 25 27  2  0
  6 11  1  0
  6 12  1  0
 29 36  1  0
 29 37  1  0
  9  7  1  6
  7 13  1  0
 10  8  1  6
  8 14  1  0
  4  5  1  0
 36 28  1  6
 33 30  1  6
 30 38  1  0
 34 31  1  6
 31 39  1  0
 35 32  1  6
 32 40  1  0
 41 43  1  0
 15 19  2  0
 42 43  2  0
 16 22  2  0
 12 17  1  1
 17 19  1  0
 17 20  1  0
 18 19  1  0
 18 22  1  0
 18 23  1  0
  9 10  1  0
  9 11  1  0
 10 12  1  0
 11  5  1  6
 33 34  1  0
 33 35  1  0
 34 36  1  0
 35 37  1  0
 37 43  1  1
 20 21  2  0
 21 22  1  0
M  CHG  3   2  -1  26  -1  41  -1
M  END
>  <COMPND>  (12) 
    udp_gluA.pdb 

>  <AUTHOR>  (12) 
    GENERATED BY OPEN BABEL 3.1.1

>  <MASTER>  (12) 
        0    0    0    0    0    0    0    0   56    0   56    0

>  <minimizedAffinity>  (12) 
-7.78572

>  <CNNscore>  (12) 
0.4192410409

>  <CNNaffinity>  (12) 
4.1855611801

>  <CNN_VS>  (12) 
1.7547590733

>  <CNNaffinity_variance>  (12) 
0.4721314311

$$$$
13
     RDKit          3D

 43 45  0  0  0  0  0  0  0  0999 V2000
   23.9116   71.7171   -2.7193 P   0  0  2  0  0  0  0  0  0  0  0  0
   23.6883   73.2015   -3.3239 O   0  0  0  0  0  0  0  0  0  0  0  0
   25.2627   71.1210   -2.9859 O   0  0  0  0  0  0  0  0  0  0  0  0
   22.6490   70.8750   -3.2803 O   0  0  0  0  0  0  0  0  0  0  0  0
   21.4378   71.5622   -3.5356 C   0  0  0  0  0  0  0  0  0  0  0  0
   19.2849   72.1041   -2.6141 O   0  0  0  0  0  0  0  0  0  0  0  0
   19.8319   69.9794   -0.5701 O   0  0  0  0  0  0  0  0  0  0  0  0
   18.1615   68.7127   -2.3140 O   0  0  0  0  0  0  0  0  0  0  0  0
   20.1834   70.0144   -1.9535 C   0  0  1  0  0  0  0  0  0  0  0  0
   18.9609   69.7654   -2.8113 C   0  0  2  0  0  0  0  0  0  0  0  0
   20.5370   71.4512   -2.3122 C   0  0  1  0  0  0  0  0  0  0  0  0
   18.2572   71.1106   -2.7555 C   0  0  2  0  0  0  0  0  0  0  0  0
   19.6019   69.0712   -0.3174 H   0  0  0  0  0  0  0  0  0  0  0  0
   18.6538   67.8782   -2.3712 H   0  0  0  0  0  0  0  0  0  0  0  0
   15.9853   72.7855   -2.8547 O   0  0  0  0  0  0  0  0  0  0  0  0
   15.4439   72.0896   -7.3787 O   0  0  0  0  0  0  0  0  0  0  0  0
   17.5034   71.3846   -3.9461 N   0  0  0  0  0  0  0  0  0  0  0  0
   15.7172   72.4365   -5.1076 N   0  0  0  0  0  0  0  0  0  0  0  0
   16.3780   72.2402   -3.8879 C   0  0  0  0  0  0  0  0  0  0  0  0
   17.8815   70.8105   -5.1538 C   0  0  0  0  0  0  0  0  0  0  0  0
   17.2417   71.0071   -6.3083 C   0  0  0  0  0  0  0  0  0  0  0  0
   16.0550   71.8870   -6.3338 C   0  0  0  0  0  0  0  0  0  0  0  0
   14.9294   73.0267   -5.0917 H   0  0  0  0  0  0  0  0  0  0  0  0
   23.5559   71.9056   -1.1538 O   0  0  0  0  0  0  0  0  0  0  0  0
   23.7694   70.9195    0.1094 P   0  0  2  0  0  0  0  0  0  0  0  0
   25.2490   70.3126   -0.1410 O   0  0  0  0  0  0  0  0  0  0  0  0
   22.6950   69.8832    0.2702 O   0  0  0  0  0  0  0  0  0  0  0  0
   23.9426   71.9060    1.3741 O   0  0  0  0  0  0  0  0  0  0  0  0
   25.7183   71.4439    2.8716 O   0  0  0  0  0  0  0  0  0  0  0  0
   23.4716   74.1488    5.0406 O   0  0  0  0  0  0  0  0  0  0  0  0
   22.1665   72.0295    3.5110 O   0  0  0  0  0  0  0  0  0  0  0  0
   25.9534   74.9904    3.7822 O   0  0  0  0  0  0  0  0  0  0  0  0
   24.0181   73.5575    3.8616 C   0  0  2  0  0  0  0  0  0  0  0  0
   23.5652   72.1006    3.7627 C   0  0  2  0  0  0  0  0  0  0  0  0
   25.5434   73.6355    3.9569 C   0  0  1  0  0  0  0  0  0  0  0  0
   24.3103   71.3708    2.6442 C   0  0  1  0  0  0  0  0  0  0  0  0
   26.2130   72.7812    2.8843 C   0  0  1  0  0  0  0  0  0  0  0  0
   22.5029   74.1106    5.0025 H   0  0  0  0  0  0  0  0  0  0  0  0
   21.6875   72.4908    4.2167 H   0  0  0  0  0  0  0  0  0  0  0  0
   25.5341   75.5449    4.4587 H   0  0  0  0  0  0  0  0  0  0  0  0
   28.0263   71.3004    3.0285 O   0  0  0  0  0  0  0  0  0  0  0  0
   28.4309   73.4909    3.5154 O   0  0  0  0  0  0  0  0  0  0  0  0
   27.6657   72.5987    3.1818 C   0  0  0  0  0  0  0  0  0  0  0  0
  1  4  1  0
  1 24  1  0
  1  2  1  6
  1  3  2  0
 25 28  1  0
 25 24  1  0
 25 26  1  6
 25 27  2  0
  6 11  1  0
  6 12  1  0
 29 36  1  0
 29 37  1  0
  9  7  1  1
  7 13  1  0
 10  8  1  1
  8 14  1  0
  4  5  1  0
 36 28  1  6
 33 30  1  1
 30 38  1  0
 34 31  1  6
 31 39  1  0
 35 32  1  6
 32 40  1  0
 41 43  1  0
 15 19  2  0
 42 43  2  0
 16 22  2  0
 12 17  1  6
 17 19  1  0
 17 20  1  0
 18 19  1  0
 18 22  1  0
 18 23  1  0
  9 10  1  0
  9 11  1  0
 10 12  1  0
 11  5  1  6
 33 34  1  0
 33 35  1  0
 34 36  1  0
 35 37  1  0
 37 43  1  1
 20 21  2  0
 21 22  1  0
M  CHG  3   2  -1  26  -1  41  -1
M  END
>  <COMPND>  (13) 
    udp_gluA.pdb 

>  <AUTHOR>  (13) 
    GENERATED BY OPEN BABEL 3.1.1

>  <MASTER>  (13) 
        0    0    0    0    0    0    0    0   56    0   56    0

>  <minimizedAffinity>  (13) 
-7.09084

>  <CNNscore>  (13) 
0.3975259960

>  <CNNaffinity>  (13) 
4.3046865463

>  <CNN_VS>  (13) 
1.7112247944

>  <CNNaffinity_variance>  (13) 
0.0043068482

$$$$
14
     RDKit          3D

 43 45  0  0  0  0  0  0  0  0999 V2000
   22.7906   73.6746   -5.7296 P   0  0  2  0  0  0  0  0  0  0  0  0
   22.9647   75.2400   -6.1012 O   0  0  0  0  0  0  0  0  0  0  0  0
   23.7627   72.7515   -6.4039 O   0  0  0  0  0  0  0  0  0  0  0  0
   21.2260   73.3789   -6.0166 O   0  0  0  0  0  0  0  0  0  0  0  0
   20.5619   72.4174   -5.2173 C   0  0  0  0  0  0  0  0  0  0  0  0
   19.5451   70.2403   -5.2825 O   0  0  0  0  0  0  0  0  0  0  0  0
   20.2094   70.2223   -8.2065 O   0  0  0  0  0  0  0  0  0  0  0  0
   17.5585   70.8619   -8.2016 O   0  0  0  0  0  0  0  0  0  0  0  0
   19.8019   71.3122   -7.3791 C   0  0  1  0  0  0  0  0  0  0  0  0
   18.3241   71.2092   -7.0668 C   0  0  2  0  0  0  0  0  0  0  0  0
   20.4318   71.1208   -6.0062 C   0  0  1  0  0  0  0  0  0  0  0  0
   18.3025   70.1328   -5.9950 C   0  0  2  0  0  0  0  0  0  0  0  0
   19.8192   70.3226   -9.0893 H   0  0  0  0  0  0  0  0  0  0  0  0
   17.6041   71.5788   -8.8542 H   0  0  0  0  0  0  0  0  0  0  0  0
   16.6701   68.0310   -5.0493 O   0  0  0  0  0  0  0  0  0  0  0  0
   14.1697   70.8991   -2.4481 O   0  0  0  0  0  0  0  0  0  0  0  0
   17.2178   70.3022   -5.0700 N   0  0  0  0  0  0  0  0  0  0  0  0
   15.4256   69.4616   -3.7555 N   0  0  0  0  0  0  0  0  0  0  0  0
   16.4594   69.1807   -4.6584 C   0  0  0  0  0  0  0  0  0  0  0  0
   16.9156   71.5667   -4.5794 C   0  0  0  0  0  0  0  0  0  0  0  0
   15.9272   71.8188   -3.7190 C   0  0  0  0  0  0  0  0  0  0  0  0
   15.0865   70.7021   -3.2399 C   0  0  0  0  0  0  0  0  0  0  0  0
   14.8825   68.6970   -3.4561 H   0  0  0  0  0  0  0  0  0  0  0  0
   22.8703   73.6739   -4.1151 O   0  0  0  0  0  0  0  0  0  0  0  0
   24.0315   73.1689   -3.1100 P   0  0  2  0  0  0  0  0  0  0  0  0
   24.2796   74.4533   -2.1565 O   0  0  0  0  0  0  0  0  0  0  0  0
   25.2655   72.6629   -3.7993 O   0  0  0  0  0  0  0  0  0  0  0  0
   23.3063   72.0882   -2.1568 O   0  0  0  0  0  0  0  0  0  0  0  0
   21.3872   72.9987   -1.1093 O   0  0  0  0  0  0  0  0  0  0  0  0
   21.6388   69.2835    0.6801 O   0  0  0  0  0  0  0  0  0  0  0  0
   24.0451   70.8796    0.2369 O   0  0  0  0  0  0  0  0  0  0  0  0
   19.6426   69.7818   -1.3737 O   0  0  0  0  0  0  0  0  0  0  0  0
   21.7872   70.2351   -0.3736 C   0  0  2  0  0  0  0  0  0  0  0  0
   22.7154   71.3617    0.0812 C   0  0  2  0  0  0  0  0  0  0  0  0
   20.4009   70.7901   -0.7083 C   0  0  1  0  0  0  0  0  0  0  0  0
   22.7170   72.5104   -0.9283 C   0  0  1  0  0  0  0  0  0  0  0  0
   20.4945   72.0107   -1.6193 C   0  0  1  0  0  0  0  0  0  0  0  0
   22.5073   68.9172    0.9099 H   0  0  0  0  0  0  0  0  0  0  0  0
   24.0514   70.1503    0.8759 H   0  0  0  0  0  0  0  0  0  0  0  0
   19.5756   68.9992   -0.8045 H   0  0  0  0  0  0  0  0  0  0  0  0
   18.3599   72.2995   -0.6912 O   0  0  0  0  0  0  0  0  0  0  0  0
   18.8994   73.6012   -2.4838 O   0  0  0  0  0  0  0  0  0  0  0  0
   19.1884   72.7343   -1.6727 C   0  0  0  0  0  0  0  0  0  0  0  0
  1  4  1  0
  1 24  1  0
  1  2  1  6
  1  3  2  0
 25 28  1  0
 25 24  1  0
 25 26  1  1
 25 27  2  0
  6 11  1  0
  6 12  1  0
 29 36  1  0
 29 37  1  0
  9  7  1  6
  7 13  1  0
 10  8  1  6
  8 14  1  0
  4  5  1  0
 36 28  1  6
 33 30  1  1
 30 38  1  0
 34 31  1  6
 31 39  1  0
 35 32  1  6
 32 40  1  0
 41 43  1  0
 15 19  2  0
 42 43  2  0
 16 22  2  0
 12 17  1  1
 17 19  1  0
 17 20  1  0
 18 19  1  0
 18 22  1  0
 18 23  1  0
  9 10  1  0
  9 11  1  0
 10 12  1  0
 11  5  1  1
 33 34  1  0
 33 35  1  0
 34 36  1  0
 35 37  1  0
 37 43  1  1
 20 21  2  0
 21 22  1  0
M  CHG  3   2  -1  26  -1  41  -1
M  END
>  <COMPND>  (14) 
    udp_gluA.pdb 

>  <AUTHOR>  (14) 
    GENERATED BY OPEN BABEL 3.1.1

>  <MASTER>  (14) 
        0    0    0    0    0    0    0    0   56    0   56    0

>  <minimizedAffinity>  (14) 
-7.42735

>  <CNNscore>  (14) 
0.3937275112

>  <CNNaffinity>  (14) 
4.1704511642

>  <CNN_VS>  (14) 
1.6420212984

>  <CNNaffinity_variance>  (14) 
0.4579485953

$$$$
15
     RDKit          3D

 43 45  0  0  0  0  0  0  0  0999 V2000
   21.6717   75.8561   -3.2522 P   0  0  2  0  0  0  0  0  0  0  0  0
   20.2982   76.0060   -2.4097 O   0  0  0  0  0  0  0  0  0  0  0  0
   22.3175   77.1519   -3.6469 O   0  0  0  0  0  0  0  0  0  0  0  0
   21.2741   74.8692   -4.4712 O   0  0  0  0  0  0  0  0  0  0  0  0
   21.0395   73.5025   -4.1856 C   0  0  0  0  0  0  0  0  0  0  0  0
   21.4584   71.3955   -5.2640 O   0  0  0  0  0  0  0  0  0  0  0  0
   23.8077   72.7363   -6.5580 O   0  0  0  0  0  0  0  0  0  0  0  0
   21.9387   72.7626   -8.5434 O   0  0  0  0  0  0  0  0  0  0  0  0
   22.5237   73.2730   -6.2392 C   0  0  1  0  0  0  0  0  0  0  0  0
   21.4826   72.7514   -7.2068 C   0  0  2  0  0  0  0  0  0  0  0  0
   22.0711   72.6576   -4.9221 C   0  0  1  0  0  0  0  0  0  0  0  0
   21.2414   71.3459   -6.6831 C   0  0  2  0  0  0  0  0  0  0  0  0
   24.1178   73.1148   -7.3960 H   0  0  0  0  0  0  0  0  0  0  0  0
   22.0771   73.6795   -8.8301 H   0  0  0  0  0  0  0  0  0  0  0  0
   20.5833   68.7416   -7.5554 O   0  0  0  0  0  0  0  0  0  0  0  0
   16.0763   69.7044   -7.6185 O   0  0  0  0  0  0  0  0  0  0  0  0
   19.9039   70.8892   -6.9352 N   0  0  0  0  0  0  0  0  0  0  0  0
   18.3392   69.2239   -7.5870 N   0  0  0  0  0  0  0  0  0  0  0  0
   19.6818   69.5615   -7.3710 C   0  0  0  0  0  0  0  0  0  0  0  0
   18.8300   71.7513   -6.7493 C   0  0  0  0  0  0  0  0  0  0  0  0
   17.5558   71.4151   -6.9592 C   0  0  0  0  0  0  0  0  0  0  0  0
   17.2375   70.0465   -7.4165 C   0  0  0  0  0  0  0  0  0  0  0  0
   18.1598   68.3054   -7.8927 H   0  0  0  0  0  0  0  0  0  0  0  0
   22.5788   74.9135   -2.3026 O   0  0  0  0  0  0  0  0  0  0  0  0
   24.1817   74.7203   -2.2188 P   0  0  2  0  0  0  0  0  0  0  0  0
   24.6792   76.0723   -1.4807 O   0  0  0  0  0  0  0  0  0  0  0  0
   24.8406   74.4601   -3.5425 O   0  0  0  0  0  0  0  0  0  0  0  0
   24.3968   73.5556   -1.1235 O   0  0  0  0  0  0  0  0  0  0  0  0
   22.6693   72.7724    0.2947 O   0  0  0  0  0  0  0  0  0  0  0  0
   26.0492   71.6765    2.4026 O   0  0  0  0  0  0  0  0  0  0  0  0
   25.8975   74.2874    1.1010 O   0  0  0  0  0  0  0  0  0  0  0  0
   24.5254   69.6750    0.9455 O   0  0  0  0  0  0  0  0  0  0  0  0
   25.2713   71.9474    1.2367 C   0  0  2  0  0  0  0  0  0  0  0  0
   24.7968   73.4006    1.2643 C   0  0  2  0  0  0  0  0  0  0  0  0
   24.0727   70.9960    1.2362 C   0  0  1  0  0  0  0  0  0  0  0  0
   23.7762   73.6640    0.1563 C   0  0  1  0  0  0  0  0  0  0  0  0
   23.0411   71.4001    0.1868 C   0  0  1  0  0  0  0  0  0  0  0  0
   26.8168   72.2694    2.4245 H   0  0  0  0  0  0  0  0  0  0  0  0
   26.5491   74.1256    1.8007 H   0  0  0  0  0  0  0  0  0  0  0  0
   25.1827   69.4058    1.6061 H   0  0  0  0  0  0  0  0  0  0  0  0
   20.7131   71.5588    0.4247 O   0  0  0  0  0  0  0  0  0  0  0  0
   21.6325   69.4765    0.5570 O   0  0  0  0  0  0  0  0  0  0  0  0
   21.7490   70.6839    0.4099 C   0  0  0  0  0  0  0  0  0  0  0  0
  1  4  1  0
  1 24  1  0
  1  2  1  1
  1  3  2  0
 25 28  1  0
 25 24  1  0
 25 26  1  1
 25 27  2  0
  6 11  1  0
  6 12  1  0
 29 36  1  0
 29 37  1  0
  9  7  1  6
  7 13  1  0
 10  8  1  6
  8 14  1  0
  4  5  1  0
 36 28  1  6
 33 30  1  1
 30 38  1  0
 34 31  1  6
 31 39  1  0
 35 32  1  6
 32 40  1  0
 41 43  1  0
 15 19  2  0
 42 43  2  0
 16 22  2  0
 12 17  1  1
 17 19  1  0
 17 20  1  0
 18 19  1  0
 18 22  1  0
 18 23  1  0
  9 10  1  0
  9 11  1  0
 10 12  1  0
 11  5  1  6
 33 34  1  0
 33 35  1  0
 34 36  1  0
 35 37  1  0
 37 43  1  1
 20 21  2  0
 21 22  1  0
M  CHG  3   2  -1  26  -1  41  -1
M  END
>  <COMPND>  (15) 
    udp_gluA.pdb 

>  <AUTHOR>  (15) 
    GENERATED BY OPEN BABEL 3.1.1

>  <MASTER>  (15) 
        0    0    0    0    0    0    0    0   56    0   56    0

>  <minimizedAffinity>  (15) 
-6.88042

>  <CNNscore>  (15) 
0.3792812824

>  <CNNaffinity>  (15) 
4.0669035912

>  <CNN_VS>  (15) 
1.5425003767

>  <CNNaffinity_variance>  (15) 
0.2168754041

$$$$
16
     RDKit          3D

 43 45  0  0  0  0  0  0  0  0999 V2000
   17.7895   69.9652   -2.0349 P   0  0  2  0  0  0  0  0  0  0  0  0
   17.0889   68.6025   -1.5140 O   0  0  0  0  0  0  0  0  0  0  0  0
   17.0910   71.2307   -1.6320 O   0  0  0  0  0  0  0  0  0  0  0  0
   17.9573   69.7316   -3.6272 O   0  0  0  0  0  0  0  0  0  0  0  0
   17.0090   68.9197   -4.2951 C   0  0  0  0  0  0  0  0  0  0  0  0
   16.8700   71.0373   -5.4238 O   0  0  0  0  0  0  0  0  0  0  0  0
   14.7739   69.7681   -7.1520 O   0  0  0  0  0  0  0  0  0  0  0  0
   16.9884   69.6818   -8.7408 O   0  0  0  0  0  0  0  0  0  0  0  0
   15.9556   69.1924   -6.5947 C   0  0  1  0  0  0  0  0  0  0  0  0
   17.1788   69.6805   -7.3415 C   0  0  2  0  0  0  0  0  0  0  0  0
   16.1647   69.7951   -5.2122 C   0  0  1  0  0  0  0  0  0  0  0  0
   17.3575   71.0785   -6.7743 C   0  0  2  0  0  0  0  0  0  0  0  0
   14.6195   69.3983   -8.0358 H   0  0  0  0  0  0  0  0  0  0  0  0
   16.8799   68.7693   -9.0532 H   0  0  0  0  0  0  0  0  0  0  0  0
   18.2110   73.7639   -6.5820 O   0  0  0  0  0  0  0  0  0  0  0  0
   22.6557   72.5536   -6.7372 O   0  0  0  0  0  0  0  0  0  0  0  0
   18.7318   71.4934   -6.7622 N   0  0  0  0  0  0  0  0  0  0  0  0
   20.4239   73.1586   -6.6605 N   0  0  0  0  0  0  0  0  0  0  0  0
   19.0533   72.8678   -6.6623 C   0  0  0  0  0  0  0  0  0  0  0  0
   19.7435   70.5447   -6.8469 C   0  0  0  0  0  0  0  0  0  0  0  0
   21.0455   70.8372   -6.8439 C   0  0  0  0  0  0  0  0  0  0  0  0
   21.4665   72.2500   -6.7433 C   0  0  0  0  0  0  0  0  0  0  0  0
   20.6723   74.1089   -6.5939 H   0  0  0  0  0  0  0  0  0  0  0  0
   19.3036   69.8276   -1.4859 O   0  0  0  0  0  0  0  0  0  0  0  0
   20.2444   70.8760   -0.6926 P   0  0  2  0  0  0  0  0  0  0  0  0
   21.1167   69.9245    0.2841 O   0  0  0  0  0  0  0  0  0  0  0  0
   19.4917   71.9650    0.0156 O   0  0  0  0  0  0  0  0  0  0  0  0
   21.2968   71.3990   -1.7978 O   0  0  0  0  0  0  0  0  0  0  0  0
   23.0982   72.3566   -0.5949 O   0  0  0  0  0  0  0  0  0  0  0  0
   24.3849   72.7619   -4.4998 O   0  0  0  0  0  0  0  0  0  0  0  0
   21.6047   73.3133   -3.7920 O   0  0  0  0  0  0  0  0  0  0  0  0
   25.5250   70.7024   -2.7941 O   0  0  0  0  0  0  0  0  0  0  0  0
   23.6967   72.1448   -3.4119 C   0  0  2  0  0  0  0  0  0  0  0  0
   22.6535   73.1120   -2.8517 C   0  0  2  0  0  0  0  0  0  0  0  0
   24.7286   71.7940   -2.3376 C   0  0  1  0  0  0  0  0  0  0  0  0
   22.0580   72.5792   -1.5477 C   0  0  1  0  0  0  0  0  0  0  0  0
   24.0552   71.3926   -1.0284 C   0  0  1  0  0  0  0  0  0  0  0  0
   23.7491   72.9937   -5.1950 H   0  0  0  0  0  0  0  0  0  0  0  0
   21.9755   73.6511   -4.6219 H   0  0  0  0  0  0  0  0  0  0  0  0
   25.9590   70.9448   -3.6270 H   0  0  0  0  0  0  0  0  0  0  0  0
   24.6133   72.1429    1.1227 O   0  0  0  0  0  0  0  0  0  0  0  0
   26.0948   70.7510    0.0897 O   0  0  0  0  0  0  0  0  0  0  0  0
   25.0433   71.3734    0.0922 C   0  0  0  0  0  0  0  0  0  0  0  0
  1  4  1  0
  1 24  1  0
  1  2  1  1
  1  3  2  0
 25 28  1  0
 25 24  1  0
 25 26  1  1
 25 27  2  0
  6 11  1  0
  6 12  1  0
 29 36  1  0
 29 37  1  0
  9  7  1  6
  7 13  1  0
 10  8  1  6
  8 14  1  0
  4  5  1  0
 36 28  1  6
 33 30  1  6
 30 38  1  0
 34 31  1  6
 31 39  1  0
 35 32  1  6
 32 40  1  0
 41 43  1  0
 15 19  2  0
 42 43  2  0
 16 22  2  0
 12 17  1  1
 17 19  1  0
 17 20  1  0
 18 19  1  0
 18 22  1  0
 18 23  1  0
  9 10  1  0
  9 11  1  0
 10 12  1  0
 11  5  1  1
 33 34  1  0
 33 35  1  0
 34 36  1  0
 35 37  1  0
 37 43  1  1
 20 21  2  0
 21 22  1  0
M  CHG  3   2  -1  26  -1  41  -1
M  END
>  <COMPND>  (16) 
    udp_gluA.pdb 

>  <AUTHOR>  (16) 
    GENERATED BY OPEN BABEL 3.1.1

>  <MASTER>  (16) 
        0    0    0    0    0    0    0    0   56    0   56    0

>  <minimizedAffinity>  (16) 
-8.21630

>  <CNNscore>  (16) 
0.3727594316

>  <CNNaffinity>  (16) 
4.0737991333

>  <CNN_VS>  (16) 
1.5185470581

>  <CNNaffinity_variance>  (16) 
0.9503015280

$$$$
17
     RDKit          3D

 43 45  0  0  0  0  0  0  0  0999 V2000
   22.9768   73.2509   -4.6982 P   0  0  2  0  0  0  0  0  0  0  0  0
   23.0223   74.8684   -4.7184 O   0  0  0  0  0  0  0  0  0  0  0  0
   23.8126   72.5804   -5.7488 O   0  0  0  0  0  0  0  0  0  0  0  0
   21.3963   72.9063   -4.7320 O   0  0  0  0  0  0  0  0  0  0  0  0
   20.8093   72.5454   -5.9688 C   0  0  0  0  0  0  0  0  0  0  0  0
   19.7495   70.5370   -5.1809 O   0  0  0  0  0  0  0  0  0  0  0  0
   20.8913   69.2028   -7.6114 O   0  0  0  0  0  0  0  0  0  0  0  0
   18.2983   69.6390   -8.3340 O   0  0  0  0  0  0  0  0  0  0  0  0
   20.3862   70.5298   -7.4625 C   0  0  1  0  0  0  0  0  0  0  0  0
   18.8744   70.5093   -7.3825 C   0  0  2  0  0  0  0  0  0  0  0  0
   20.7718   71.0264   -6.0757 C   0  0  1  0  0  0  0  0  0  0  0  0
   18.6404   70.0506   -5.9533 C   0  0  2  0  0  0  0  0  0  0  0  0
   20.6572   68.8641   -8.4902 H   0  0  0  0  0  0  0  0  0  0  0  0
   18.4747   69.9745   -9.2275 H   0  0  0  0  0  0  0  0  0  0  0  0
   16.6758   68.4890   -4.6576 O   0  0  0  0  0  0  0  0  0  0  0  0
   14.0068   72.1650   -3.8779 O   0  0  0  0  0  0  0  0  0  0  0  0
   17.4224   70.5739   -5.4022 N   0  0  0  0  0  0  0  0  0  0  0  0
   15.3479   70.3212   -4.2714 N   0  0  0  0  0  0  0  0  0  0  0  0
   16.5018   69.7038   -4.7719 C   0  0  0  0  0  0  0  0  0  0  0  0
   17.1508   71.9340   -5.4875 C   0  0  0  0  0  0  0  0  0  0  0  0
   16.0466   72.5079   -5.0056 C   0  0  0  0  0  0  0  0  0  0  0  0
   15.0332   71.6691   -4.3328 C   0  0  0  0  0  0  0  0  0  0  0  0
   14.6911   69.7354   -3.8300 H   0  0  0  0  0  0  0  0  0  0  0  0
   23.3939   72.8951   -3.1776 O   0  0  0  0  0  0  0  0  0  0  0  0
   23.6755   71.4746   -2.4589 P   0  0  2  0  0  0  0  0  0  0  0  0
   25.2214   71.1717   -2.8314 O   0  0  0  0  0  0  0  0  0  0  0  0
   22.7198   70.3855   -2.8519 O   0  0  0  0  0  0  0  0  0  0  0  0
   23.6952   71.8109   -0.8812 O   0  0  0  0  0  0  0  0  0  0  0  0
   24.9668   70.9834    0.9374 O   0  0  0  0  0  0  0  0  0  0  0  0
   21.2572   71.5130    2.6772 O   0  0  0  0  0  0  0  0  0  0  0  0
   21.4872   70.3672   -0.0002 O   0  0  0  0  0  0  0  0  0  0  0  0
   23.4019   73.4017    3.2101 O   0  0  0  0  0  0  0  0  0  0  0  0
   22.3247   71.7961    1.7726 C   0  0  2  0  0  0  0  0  0  0  0  0
   22.5807   70.5773    0.8856 C   0  0  2  0  0  0  0  0  0  0  0  0
   23.5703   72.1241    2.5988 C   0  0  1  0  0  0  0  0  0  0  0  0
   23.8589   70.7564    0.0654 C   0  0  1  0  0  0  0  0  0  0  0  0
   24.8227   72.1614    1.7278 C   0  0  1  0  0  0  0  0  0  0  0  0
   20.4547   71.3016    2.1746 H   0  0  0  0  0  0  0  0  0  0  0  0
   20.6727   70.2530    0.5135 H   0  0  0  0  0  0  0  0  0  0  0  0
   22.6079   73.3915    3.7672 H   0  0  0  0  0  0  0  0  0  0  0  0
   27.0321   71.4167    1.9840 O   0  0  0  0  0  0  0  0  0  0  0  0
   26.1775   72.7279    3.6422 O   0  0  0  0  0  0  0  0  0  0  0  0
   26.0559   72.1525    2.5712 C   0  0  0  0  0  0  0  0  0  0  0  0
  1  4  1  0
  1 24  1  0
  1  2  1  1
  1  3  2  0
 25 28  1  0
 25 24  1  0
 25 26  1  6
 25 27  2  0
  6 11  1  0
  6 12  1  0
 29 36  1  0
 29 37  1  0
  9  7  1  1
  7 13  1  0
 10  8  1  6
  8 14  1  0
  4  5  1  0
 36 28  1  6
 33 30  1  1
 30 38  1  0
 34 31  1  6
 31 39  1  0
 35 32  1  6
 32 40  1  0
 41 43  1  0
 15 19  2  0
 42 43  2  0
 16 22  2  0
 12 17  1  1
 17 19  1  0
 17 20  1  0
 18 19  1  0
 18 22  1  0
 18 23  1  0
  9 10  1  0
  9 11  1  0
 10 12  1  0
 11  5  1  6
 33 34  1  0
 33 35  1  0
 34 36  1  0
 35 37  1  0
 37 43  1  1
 20 21  2  0
 21 22  1  0
M  CHG  3   2  -1  26  -1  41  -1
M  END
>  <COMPND>  (17) 
    udp_gluA.pdb 

>  <AUTHOR>  (17) 
    GENERATED BY OPEN BABEL 3.1.1

>  <MASTER>  (17) 
        0    0    0    0    0    0    0    0   56    0   56    0

>  <minimizedAffinity>  (17) 
-8.17933

>  <CNNscore>  (17) 
0.3703904152

>  <CNNaffinity>  (17) 
4.2805523872

>  <CNN_VS>  (17) 
1.5854755640

>  <CNNaffinity_variance>  (17) 
0.0926645622

$$$$
18
     RDKit          3D

 43 45  0  0  0  0  0  0  0  0999 V2000
   16.7880   70.1027   -1.8498 P   0  0  2  0  0  0  0  0  0  0  0  0
   17.5162   68.6585   -1.9018 O   0  0  0  0  0  0  0  0  0  0  0  0
   15.7010   70.2275   -0.8228 O   0  0  0  0  0  0  0  0  0  0  0  0
   16.3408   70.3678   -3.3820 O   0  0  0  0  0  0  0  0  0  0  0  0
   14.9948   70.7220   -3.6418 C   0  0  0  0  0  0  0  0  0  0  0  0
   16.3083   72.3762   -4.7891 O   0  0  0  0  0  0  0  0  0  0  0  0
   13.7156   73.3973   -5.8966 O   0  0  0  0  0  0  0  0  0  0  0  0
   14.7206   71.9455   -7.9747 O   0  0  0  0  0  0  0  0  0  0  0  0
   14.1145   72.0541   -5.6224 C   0  0  1  0  0  0  0  0  0  0  0  0
   15.1027   71.5775   -6.6658 C   0  0  2  0  0  0  0  0  0  0  0  0
   14.9651   72.0652   -4.3596 C   0  0  1  0  0  0  0  0  0  0  0  0
   16.3858   72.2566   -6.2184 C   0  0  2  0  0  0  0  0  0  0  0  0
   13.1708   73.4156   -6.6995 H   0  0  0  0  0  0  0  0  0  0  0  0
   13.8991   71.4869   -8.2127 H   0  0  0  0  0  0  0  0  0  0  0  0
   18.9788   73.3483   -6.4665 O   0  0  0  0  0  0  0  0  0  0  0  0
   20.7994   69.2514   -7.5363 O   0  0  0  0  0  0  0  0  0  0  0  0
   17.5555   71.4979   -6.5607 N   0  0  0  0  0  0  0  0  0  0  0  0
   19.8829   71.3069   -7.0000 N   0  0  0  0  0  0  0  0  0  0  0  0
   18.8111   72.1427   -6.6596 C   0  0  0  0  0  0  0  0  0  0  0  0
   17.4527   70.1317   -6.7925 C   0  0  0  0  0  0  0  0  0  0  0  0
   18.4833   69.3482   -7.1161 C   0  0  0  0  0  0  0  0  0  0  0  0
   19.8300   69.9436   -7.2407 C   0  0  0  0  0  0  0  0  0  0  0  0
   20.7669   71.7336   -7.0769 H   0  0  0  0  0  0  0  0  0  0  0  0
   18.0238   71.1253   -1.6499 O   0  0  0  0  0  0  0  0  0  0  0  0
   19.3332   71.3982   -2.5580 P   0  0  2  0  0  0  0  0  0  0  0  0
   19.2211   72.9756   -2.9040 O   0  0  0  0  0  0  0  0  0  0  0  0
   19.4445   70.5076   -3.7615 O   0  0  0  0  0  0  0  0  0  0  0  0
   20.5727   71.2938   -1.5309 O   0  0  0  0  0  0  0  0  0  0  0  0
   22.4678   70.8470   -2.8794 O   0  0  0  0  0  0  0  0  0  0  0  0
   24.1676   71.1979    0.8697 O   0  0  0  0  0  0  0  0  0  0  0  0
   21.6565   69.7485    0.5121 O   0  0  0  0  0  0  0  0  0  0  0  0
   24.4298   73.3570   -1.0592 O   0  0  0  0  0  0  0  0  0  0  0  0
   23.2221   71.4744   -0.1635 C   0  0  2  0  0  0  0  0  0  0  0  0
   22.4956   70.1860   -0.5505 C   0  0  2  0  0  0  0  0  0  0  0  0
   23.9853   72.0366   -1.3649 C   0  0  1  0  0  0  0  0  0  0  0  0
   21.6446   70.3932   -1.8042 C   0  0  1  0  0  0  0  0  0  0  0  0
   23.1024   72.0947   -2.6082 C   0  0  1  0  0  0  0  0  0  0  0  0
   23.7054   70.8395    1.6438 H   0  0  0  0  0  0  0  0  0  0  0  0
   22.1899   69.6153    1.3109 H   0  0  0  0  0  0  0  0  0  0  0  0
   24.9927   73.3339   -0.2696 H   0  0  0  0  0  0  0  0  0  0  0  0
   25.2466   72.3421   -3.5261 O   0  0  0  0  0  0  0  0  0  0  0  0
   23.4793   72.4769   -4.9605 O   0  0  0  0  0  0  0  0  0  0  0  0
   23.9259   72.3255   -3.8333 C   0  0  0  0  0  0  0  0  0  0  0  0
  1  4  1  0
  1 24  1  0
  1  2  1  6
  1  3  2  0
 25 28  1  0
 25 24  1  0
 25 26  1  6
 25 27  2  0
  6 11  1  0
  6 12  1  0
 29 36  1  0
 29 37  1  0
  9  7  1  6
  7 13  1  0
 10  8  1  6
  8 14  1  0
  4  5  1  0
 36 28  1  1
 33 30  1  1
 30 38  1  0
 34 31  1  1
 31 39  1  0
 35 32  1  1
 32 40  1  0
 41 43  1  0
 15 19  2  0
 42 43  2  0
 16 22  2  0
 12 17  1  1
 17 19  1  0
 17 20  1  0
 18 19  1  0
 18 22  1  0
 18 23  1  0
  9 10  1  0
  9 11  1  0
 10 12  1  0
 11  5  1  6
 33 34  1  0
 33 35  1  0
 34 36  1  0
 35 37  1  0
 37 43  1  6
 20 21  2  0
 21 22  1  0
M  CHG  3   2  -1  26  -1  41  -1
M  END
>  <COMPND>  (18) 
    udp_gluA.pdb 

>  <AUTHOR>  (18) 
    GENERATED BY OPEN BABEL 3.1.1

>  <MASTER>  (18) 
        0    0    0    0    0    0    0    0   56    0   56    0

>  <minimizedAffinity>  (18) 
-7.17040

>  <CNNscore>  (18) 
0.3658863306

>  <CNNaffinity>  (18) 
4.1227126122

>  <CNN_VS>  (18) 
1.5084441900

>  <CNNaffinity_variance>  (18) 
0.4150378108

$$$$
19
     RDKit          3D

 43 45  0  0  0  0  0  0  0  0999 V2000
   23.0091   73.2423   -4.7278 P   0  0  2  0  0  0  0  0  0  0  0  0
   23.3190   74.8306   -4.7302 O   0  0  0  0  0  0  0  0  0  0  0  0
   23.8698   72.4274   -5.6482 O   0  0  0  0  0  0  0  0  0  0  0  0
   21.4159   73.1568   -4.9965 O   0  0  0  0  0  0  0  0  0  0  0  0
   20.8463   71.8941   -5.2892 C   0  0  0  0  0  0  0  0  0  0  0  0
   18.6764   71.0550   -5.8931 O   0  0  0  0  0  0  0  0  0  0  0  0
   18.1866   73.7423   -7.1299 O   0  0  0  0  0  0  0  0  0  0  0  0
   16.8548   73.9266   -4.7575 O   0  0  0  0  0  0  0  0  0  0  0  0
   18.9125   73.4113   -5.9458 C   0  0  1  0  0  0  0  0  0  0  0  0
   17.9567   73.0462   -4.8299 C   0  0  2  0  0  0  0  0  0  0  0  0
   19.6347   72.0934   -6.1906 C   0  0  1  0  0  0  0  0  0  0  0  0
   17.5517   71.6326   -5.2112 C   0  0  2  0  0  0  0  0  0  0  0  0
   17.7167   74.5810   -6.9976 H   0  0  0  0  0  0  0  0  0  0  0  0
   17.1646   74.8128   -4.5113 H   0  0  0  0  0  0  0  0  0  0  0  0
   14.9747   71.4181   -4.0757 O   0  0  0  0  0  0  0  0  0  0  0  0
   16.4517   68.5075   -0.8213 O   0  0  0  0  0  0  0  0  0  0  0  0
   17.2347   70.8258   -4.0669 N   0  0  0  0  0  0  0  0  0  0  0  0
   15.7130   69.9695   -2.4553 N   0  0  0  0  0  0  0  0  0  0  0  0
   15.9083   70.7879   -3.5756 C   0  0  0  0  0  0  0  0  0  0  0  0
   18.2305   70.0824   -3.4451 C   0  0  0  0  0  0  0  0  0  0  0  0
   18.0290   69.3067   -2.3781 C   0  0  0  0  0  0  0  0  0  0  0  0
   16.6716   69.2121   -1.8019 C   0  0  0  0  0  0  0  0  0  0  0  0
   14.7981   69.9286   -2.0939 H   0  0  0  0  0  0  0  0  0  0  0  0
   23.1356   72.8503   -3.1647 O   0  0  0  0  0  0  0  0  0  0  0  0
   23.5385   71.4578   -2.4488 P   0  0  2  0  0  0  0  0  0  0  0  0
   25.0931   71.2679   -2.8579 O   0  0  0  0  0  0  0  0  0  0  0  0
   22.6567   70.2993   -2.8153 O   0  0  0  0  0  0  0  0  0  0  0  0
   23.5711   71.8021   -0.8731 O   0  0  0  0  0  0  0  0  0  0  0  0
   24.9012   70.9889    0.9098 O   0  0  0  0  0  0  0  0  0  0  0  0
   21.2509   71.5355    2.7656 O   0  0  0  0  0  0  0  0  0  0  0  0
   21.3925   70.3673    0.0917 O   0  0  0  0  0  0  0  0  0  0  0  0
   23.4126   73.4271    3.2123 O   0  0  0  0  0  0  0  0  0  0  0  0
   22.2883   71.8103    1.8242 C   0  0  2  0  0  0  0  0  0  0  0  0
   22.5145   70.5841    0.9395 C   0  0  2  0  0  0  0  0  0  0  0  0
   23.5604   72.1443    2.6064 C   0  0  1  0  0  0  0  0  0  0  0  0
   23.7653   70.7555    0.0763 C   0  0  1  0  0  0  0  0  0  0  0  0
   24.7836   72.1736    1.6946 C   0  0  1  0  0  0  0  0  0  0  0  0
   20.4322   71.3205    2.2913 H   0  0  0  0  0  0  0  0  0  0  0  0
   20.5953   70.2580    0.6328 H   0  0  0  0  0  0  0  0  0  0  0  0
   22.6374   73.4220    3.7952 H   0  0  0  0  0  0  0  0  0  0  0  0
   26.9835   71.3890    1.9100 O   0  0  0  0  0  0  0  0  0  0  0  0
   26.2136   72.7868    3.5386 O   0  0  0  0  0  0  0  0  0  0  0  0
   26.0438   72.1707    2.4972 C   0  0  0  0  0  0  0  0  0  0  0  0
  1  4  1  0
  1 24  1  0
  1  2  1  1
  1  3  2  0
 25 28  1  0
 25 24  1  0
 25 26  1  6
 25 27  2  0
  6 11  1  0
  6 12  1  0
 29 36  1  0
 29 37  1  0
  9  7  1  6
  7 13  1  0
 10  8  1  6
  8 14  1  0
  4  5  1  0
 36 28  1  6
 33 30  1  1
 30 38  1  0
 34 31  1  6
 31 39  1  0
 35 32  1  6
 32 40  1  0
 41 43  1  0
 15 19  2  0
 42 43  2  0
 16 22  2  0
 12 17  1  1
 17 19  1  0
 17 20  1  0
 18 19  1  0
 18 22  1  0
 18 23  1  0
  9 10  1  0
  9 11  1  0
 10 12  1  0
 11  5  1  1
 33 34  1  0
 33 35  1  0
 34 36  1  0
 35 37  1  0
 37 43  1  1
 20 21  2  0
 21 22  1  0
M  CHG  3   2  -1  26  -1  41  -1
M  END
>  <COMPND>  (19) 
    udp_gluA.pdb 

>  <AUTHOR>  (19) 
    GENERATED BY OPEN BABEL 3.1.1

>  <MASTER>  (19) 
        0    0    0    0    0    0    0    0   56    0   56    0

>  <minimizedAffinity>  (19) 
-7.60031

>  <CNNscore>  (19) 
0.3616066277

>  <CNNaffinity>  (19) 
4.0151939392

>  <CNN_VS>  (19) 
1.4519207478

>  <CNNaffinity_variance>  (19) 
0.2619429529

$$$$
20
     RDKit          3D

 43 45  0  0  0  0  0  0  0  0999 V2000
   22.2040   72.4944   -4.7837 P   0  0  2  0  0  0  0  0  0  0  0  0
   23.5540   72.4269   -5.6736 O   0  0  0  0  0  0  0  0  0  0  0  0
   21.5900   73.8586   -4.6665 O   0  0  0  0  0  0  0  0  0  0  0  0
   22.6227   71.7902   -3.3885 O   0  0  0  0  0  0  0  0  0  0  0  0
   21.6125   71.5354   -2.4298 C   0  0  0  0  0  0  0  0  0  0  0  0
   23.4804   70.9030   -1.0555 O   0  0  0  0  0  0  0  0  0  0  0  0
   21.5319   69.2406    0.5037 O   0  0  0  0  0  0  0  0  0  0  0  0
   21.8211   71.4503    2.0752 O   0  0  0  0  0  0  0  0  0  0  0  0
   21.3412   70.5125   -0.1163 C   0  0  1  0  0  0  0  0  0  0  0  0
   22.0310   71.5954    0.6862 C   0  0  2  0  0  0  0  0  0  0  0  0
   22.1341   70.5252   -1.4160 C   0  0  1  0  0  0  0  0  0  0  0  0
   23.4852   71.4027    0.2912 C   0  0  2  0  0  0  0  0  0  0  0  0
   21.0347   69.2086    1.3364 H   0  0  0  0  0  0  0  0  0  0  0  0
   20.8806   71.5823    2.2756 H   0  0  0  0  0  0  0  0  0  0  0  0
   24.9022   72.3333    2.5501 O   0  0  0  0  0  0  0  0  0  0  0  0
   26.3120   76.1202    0.3329 O   0  0  0  0  0  0  0  0  0  0  0  0
   24.2312   72.6285    0.3318 N   0  0  0  0  0  0  0  0  0  0  0  0
   25.6022   74.2190    1.4440 N   0  0  0  0  0  0  0  0  0  0  0  0
   24.9073   73.0045    1.5165 C   0  0  0  0  0  0  0  0  0  0  0  0
   24.2891   73.4427   -0.7928 C   0  0  0  0  0  0  0  0  0  0  0  0
   24.9557   74.5975   -0.8468 C   0  0  0  0  0  0  0  0  0  0  0  0
   25.6885   75.0632    0.3488 C   0  0  0  0  0  0  0  0  0  0  0  0
   26.0791   74.5027    2.2572 H   0  0  0  0  0  0  0  0  0  0  0  0
   21.2549   71.3864   -5.4796 O   0  0  0  0  0  0  0  0  0  0  0  0
   20.6444   71.2994   -6.9740 P   0  0  2  0  0  0  0  0  0  0  0  0
   21.1926   69.8758   -7.5153 O   0  0  0  0  0  0  0  0  0  0  0  0
   20.9905   72.4688   -7.8496 O   0  0  0  0  0  0  0  0  0  0  0  0
   19.0622   71.0707   -6.7571 O   0  0  0  0  0  0  0  0  0  0  0  0
   18.1375   69.3090   -5.4724 O   0  0  0  0  0  0  0  0  0  0  0  0
   15.0061   70.2381   -8.0021 O   0  0  0  0  0  0  0  0  0  0  0  0
   17.7438   70.1222   -9.0151 O   0  0  0  0  0  0  0  0  0  0  0  0
   14.9388   71.0889   -5.2232 O   0  0  0  0  0  0  0  0  0  0  0  0
   16.1655   70.5020   -7.2120 C   0  0  2  0  0  0  0  0  0  0  0  0
   17.3379   69.6679   -7.7292 C   0  0  2  0  0  0  0  0  0  0  0  0
   15.8452   70.1289   -5.7628 C   0  0  1  0  0  0  0  0  0  0  0  0
   18.5294   69.7476   -6.7738 C   0  0  1  0  0  0  0  0  0  0  0  0
   17.1046   70.1090   -4.9014 C   0  0  1  0  0  0  0  0  0  0  0  0
   15.1861   70.4676   -8.9274 H   0  0  0  0  0  0  0  0  0  0  0  0
   16.9925   70.0746   -9.6263 H   0  0  0  0  0  0  0  0  0  0  0  0
   14.1329   71.1117   -5.7625 H   0  0  0  0  0  0  0  0  0  0  0  0
   17.8565   68.5921   -3.2780 O   0  0  0  0  0  0  0  0  0  0  0  0
   15.8543   69.6147   -2.8979 O   0  0  0  0  0  0  0  0  0  0  0  0
   16.8423   69.4351   -3.5940 C   0  0  0  0  0  0  0  0  0  0  0  0
  1  4  1  0
  1 24  1  0
  1  2  1  6
  1  3  2  0
 25 28  1  0
 25 24  1  0
 25 26  1  6
 25 27  2  0
  6 11  1  0
  6 12  1  0
 29 36  1  0
 29 37  1  0
  9  7  1  1
  7 13  1  0
 10  8  1  1
  8 14  1  0
  4  5  1  0
 36 28  1  1
 33 30  1  6
 30 38  1  0
 34 31  1  6
 31 39  1  0
 35 32  1  1
 32 40  1  0
 41 43  1  0
 15 19  2  0
 42 43  2  0
 16 22  2  0
 12 17  1  6
 17 19  1  0
 17 20  1  0
 18 19  1  0
 18 22  1  0
 18 23  1  0
  9 10  1  0
  9 11  1  0
 10 12  1  0
 11  5  1  6
 33 34  1  0
 33 35  1  0
 34 36  1  0
 35 37  1  0
 37 43  1  1
 20 21  2  0
 21 22  1  0
M  CHG  3   2  -1  26  -1  41  -1
M  END
>  <COMPND>  (20) 
    udp_gluA.pdb 

>  <AUTHOR>  (20) 
    GENERATED BY OPEN BABEL 3.1.1

>  <MASTER>  (20) 
        0    0    0    0    0    0    0    0   56    0   56    0

>  <minimizedAffinity>  (20) 
-8.07379

>  <CNNscore>  (20) 
0.3596712053

>  <CNNaffinity>  (20) 
4.2450594902

>  <CNN_VS>  (20) 
1.5268256664

>  <CNNaffinity_variance>  (20) 
0.1317513883

$$$$
21
     RDKit          3D

 43 45  0  0  0  0  0  0  0  0999 V2000
   24.2647   72.0396   -3.1326 P   0  0  2  0  0  0  0  0  0  0  0  0
   24.9992   73.2553   -3.9081 O   0  0  0  0  0  0  0  0  0  0  0  0
   25.1415   70.8602   -2.8289 O   0  0  0  0  0  0  0  0  0  0  0  0
   22.9613   71.7309   -4.0402 O   0  0  0  0  0  0  0  0  0  0  0  0
   22.3618   72.8003   -4.7483 C   0  0  0  0  0  0  0  0  0  0  0  0
   21.1850   71.0062   -5.8318 O   0  0  0  0  0  0  0  0  0  0  0  0
   20.7220   72.9226   -8.0911 O   0  0  0  0  0  0  0  0  0  0  0  0
   18.3349   72.9667   -6.7736 O   0  0  0  0  0  0  0  0  0  0  0  0
   20.7560   73.1735   -6.6860 C   0  0  1  0  0  0  0  0  0  0  0  0
   19.4941   72.6540   -6.0301 C   0  0  2  0  0  0  0  0  0  0  0  0
   21.8248   72.2778   -6.0746 C   0  0  1  0  0  0  0  0  0  0  0  0
   19.7633   71.1601   -5.9675 C   0  0  2  0  0  0  0  0  0  0  0  0
   20.0462   73.4836   -8.5038 H   0  0  0  0  0  0  0  0  0  0  0  0
   18.2069   73.9288   -6.7836 H   0  0  0  0  0  0  0  0  0  0  0  0
   17.2197   69.9375   -6.0758 O   0  0  0  0  0  0  0  0  0  0  0  0
   17.3813   68.7862   -1.6157 O   0  0  0  0  0  0  0  0  0  0  0  0
   19.1170   70.5332   -4.8494 N   0  0  0  0  0  0  0  0  0  0  0  0
   17.3022   69.3661   -3.8540 N   0  0  0  0  0  0  0  0  0  0  0  0
   17.8386   69.9483   -5.0100 C   0  0  0  0  0  0  0  0  0  0  0  0
   19.7486   70.5006   -3.6121 C   0  0  0  0  0  0  0  0  0  0  0  0
   19.2247   69.9419   -2.5193 C   0  0  0  0  0  0  0  0  0  0  0  0
   17.8918   69.3094   -2.6015 C   0  0  0  0  0  0  0  0  0  0  0  0
   16.4121   68.9543   -3.9407 H   0  0  0  0  0  0  0  0  0  0  0  0
   23.6378   72.7653   -1.8314 O   0  0  0  0  0  0  0  0  0  0  0  0
   22.5625   72.2463   -0.7414 P   0  0  2  0  0  0  0  0  0  0  0  0
   22.6425   70.6355   -0.8809 O   0  0  0  0  0  0  0  0  0  0  0  0
   21.1841   72.8145   -0.9173 O   0  0  0  0  0  0  0  0  0  0  0  0
   23.2410   72.5654    0.6870 O   0  0  0  0  0  0  0  0  0  0  0  0
   25.0161   71.4951    1.8326 O   0  0  0  0  0  0  0  0  0  0  0  0
   22.6101   72.7143    4.9619 O   0  0  0  0  0  0  0  0  0  0  0  0
   21.4315   71.5662    2.5479 O   0  0  0  0  0  0  0  0  0  0  0  0
   25.0650   74.1515    4.3630 O   0  0  0  0  0  0  0  0  0  0  0  0
   23.2011   72.7939    3.6648 C   0  0  2  0  0  0  0  0  0  0  0  0
   22.8213   71.5555    2.8526 C   0  0  2  0  0  0  0  0  0  0  0  0
   24.7193   72.8700    3.8408 C   0  0  1  0  0  0  0  0  0  0  0  0
   23.6167   71.4919    1.5479 C   0  0  1  0  0  0  0  0  0  0  0  0
   25.4446   72.6727    2.5128 C   0  0  1  0  0  0  0  0  0  0  0  0
   21.6450   72.6649    4.8752 H   0  0  0  0  0  0  0  0  0  0  0  0
   20.9207   71.6068    3.3713 H   0  0  0  0  0  0  0  0  0  0  0  0
   24.6097   74.2897    5.2083 H   0  0  0  0  0  0  0  0  0  0  0  0
   27.5419   73.5712    3.0567 O   0  0  0  0  0  0  0  0  0  0  0  0
   27.4452   71.3304    2.6459 O   0  0  0  0  0  0  0  0  0  0  0  0
   26.9003   72.4204    2.7358 C   0  0  0  0  0  0  0  0  0  0  0  0
  1  4  1  0
  1 24  1  0
  1  2  1  6
  1  3  2  0
 25 28  1  0
 25 24  1  0
 25 26  1  6
 25 27  2  0
  6 11  1  0
  6 12  1  0
 29 36  1  0
 29 37  1  0
  9  7  1  6
  7 13  1  0
 10  8  1  6
  8 14  1  0
  4  5  1  0
 36 28  1  6
 33 30  1  1
 30 38  1  0
 34 31  1  6
 31 39  1  0
 35 32  1  6
 32 40  1  0
 41 43  1  0
 15 19  2  0
 42 43  2  0
 16 22  2  0
 12 17  1  1
 17 19  1  0
 17 20  1  0
 18 19  1  0
 18 22  1  0
 18 23  1  0
  9 10  1  0
  9 11  1  0
 10 12  1  0
 11  5  1  1
 33 34  1  0
 33 35  1  0
 34 36  1  0
 35 37  1  0
 37 43  1  1
 20 21  2  0
 21 22  1  0
M  CHG  3   2  -1  26  -1  41  -1
M  END
>  <COMPND>  (21) 
    udp_gluA.pdb 

>  <AUTHOR>  (21) 
    GENERATED BY OPEN BABEL 3.1.1

>  <MASTER>  (21) 
        0    0    0    0    0    0    0    0   56    0   56    0

>  <minimizedAffinity>  (21) 
-7.86700

>  <CNNscore>  (21) 
0.7016156912

>  <CNNaffinity>  (21) 
4.4202933311

>  <CNN_VS>  (21) 
3.1013472080

>  <CNNaffinity_variance>  (21) 
0.1319992393

$$$$
22
     RDKit          3D

 43 45  0  0  0  0  0  0  0  0999 V2000
   17.0258   69.7501   -2.7263 P   0  0  2  0  0  0  0  0  0  0  0  0
   17.2860   68.8279   -1.4222 O   0  0  0  0  0  0  0  0  0  0  0  0
   15.8137   70.6313   -2.6476 O   0  0  0  0  0  0  0  0  0  0  0  0
   17.0521   68.6996   -3.9566 O   0  0  0  0  0  0  0  0  0  0  0  0
   17.8073   69.0264   -5.1087 C   0  0  0  0  0  0  0  0  0  0  0  0
   17.6842   71.2574   -5.9948 O   0  0  0  0  0  0  0  0  0  0  0  0
   15.7408   70.1559   -7.9952 O   0  0  0  0  0  0  0  0  0  0  0  0
   18.0558   70.2980   -9.4293 O   0  0  0  0  0  0  0  0  0  0  0  0
   16.8990   69.5429   -7.4283 C   0  0  1  0  0  0  0  0  0  0  0  0
   18.1545   70.1383   -8.0295 C   0  0  2  0  0  0  0  0  0  0  0  0
   17.0009   69.9853   -5.9750 C   0  0  1  0  0  0  0  0  0  0  0  0
   18.2575   71.4644   -7.2955 C   0  0  2  0  0  0  0  0  0  0  0  0
   15.6546   69.8881   -8.9239 H   0  0  0  0  0  0  0  0  0  0  0  0
   17.9929   69.4258   -9.8505 H   0  0  0  0  0  0  0  0  0  0  0  0
   20.5144   69.7921   -7.5894 O   0  0  0  0  0  0  0  0  0  0  0  0
   23.4229   73.2517   -6.6864 O   0  0  0  0  0  0  0  0  0  0  0  0
   19.6161   71.9021   -7.1427 N   0  0  0  0  0  0  0  0  0  0  0  0
   21.9608   71.5165   -7.1384 N   0  0  0  0  0  0  0  0  0  0  0  0
   20.6774   70.9817   -7.3113 C   0  0  0  0  0  0  0  0  0  0  0  0
   19.8864   73.2291   -6.8312 C   0  0  0  0  0  0  0  0  0  0  0  0
   21.1150   73.7242   -6.6696 C   0  0  0  0  0  0  0  0  0  0  0  0
   22.2796   72.8286   -6.8277 C   0  0  0  0  0  0  0  0  0  0  0  0
   22.7158   70.8944   -7.2488 H   0  0  0  0  0  0  0  0  0  0  0  0
   18.4245   70.5426   -2.8952 O   0  0  0  0  0  0  0  0  0  0  0  0
   18.8344   72.0626   -2.5274 P   0  0  2  0  0  0  0  0  0  0  0  0
   18.2352   72.2567   -1.0363 O   0  0  0  0  0  0  0  0  0  0  0  0
   18.3637   73.0849   -3.5210 O   0  0  0  0  0  0  0  0  0  0  0  0
   20.4337   72.0166   -2.3208 O   0  0  0  0  0  0  0  0  0  0  0  0
   22.4315   71.0194   -3.1105 O   0  0  0  0  0  0  0  0  0  0  0  0
   22.4639   69.9263    0.8735 O   0  0  0  0  0  0  0  0  0  0  0  0
   19.9859   69.8232   -0.6703 O   0  0  0  0  0  0  0  0  0  0  0  0
   24.2153   72.0449   -0.0726 O   0  0  0  0  0  0  0  0  0  0  0  0
   22.1801   70.7669   -0.2449 C   0  0  2  0  0  0  0  0  0  0  0  0
   21.2791   70.0214   -1.2298 C   0  0  2  0  0  0  0  0  0  0  0  0
   23.5086   71.1325   -0.9108 C   0  0  1  0  0  0  0  0  0  0  0  0
   21.1411   70.7975   -2.5403 C   0  0  1  0  0  0  0  0  0  0  0  0
   23.2880   71.7898   -2.2702 C   0  0  1  0  0  0  0  0  0  0  0  0
   21.6343   69.6809    1.3126 H   0  0  0  0  0  0  0  0  0  0  0  0
   20.0659   69.3315    0.1617 H   0  0  0  0  0  0  0  0  0  0  0  0
   24.3620   71.6388    0.7959 H   0  0  0  0  0  0  0  0  0  0  0  0
   25.3808   70.8192   -2.6939 O   0  0  0  0  0  0  0  0  0  0  0  0
   24.8375   72.6831   -3.8895 O   0  0  0  0  0  0  0  0  0  0  0  0
   24.5628   71.8413   -3.0476 C   0  0  0  0  0  0  0  0  0  0  0  0
  1  4  1  0
  1 24  1  0
  1  2  1  1
  1  3  2  0
 25 28  1  0
 25 24  1  0
 25 26  1  1
 25 27  2  0
  6 11  1  0
  6 12  1  0
 29 36  1  0
 29 37  1  0
  9  7  1  6
  7 13  1  0
 10  8  1  6
  8 14  1  0
  4  5  1  0
 36 28  1  1
 33 30  1  1
 30 38  1  0
 34 31  1  1
 31 39  1  0
 35 32  1  1
 32 40  1  0
 41 43  1  0
 15 19  2  0
 42 43  2  0
 16 22  2  0
 12 17  1  1
 17 19  1  0
 17 20  1  0
 18 19  1  0
 18 22  1  0
 18 23  1  0
  9 10  1  0
  9 11  1  0
 10 12  1  0
 11  5  1  1
 33 34  1  0
 33 35  1  0
 34 36  1  0
 35 37  1  0
 37 43  1  6
 20 21  2  0
 21 22  1  0
M  CHG  3   2  -1  26  -1  41  -1
M  END
>  <COMPND>  (22) 
    udp_gluA.pdb 

>  <AUTHOR>  (22) 
    GENERATED BY OPEN BABEL 3.1.1

>  <MASTER>  (22) 
        0    0    0    0    0    0    0    0   56    0   56    0

>  <minimizedAffinity>  (22) 
-8.78216

>  <CNNscore>  (22) 
0.6932821274

>  <CNNaffinity>  (22) 
4.7013216019

>  <CNN_VS>  (22) 
3.2593421936

>  <CNNaffinity_variance>  (22) 
0.5073730350

$$$$
23
     RDKit          3D

 43 45  0  0  0  0  0  0  0  0999 V2000
   19.7416   71.4543   -1.6062 P   0  0  2  0  0  0  0  0  0  0  0  0
   19.3828   69.9036   -1.3141 O   0  0  0  0  0  0  0  0  0  0  0  0
   18.6212   72.4213   -1.3587 O   0  0  0  0  0  0  0  0  0  0  0  0
   20.3366   71.4386   -3.1108 O   0  0  0  0  0  0  0  0  0  0  0  0
   21.1492   72.5204   -3.5278 C   0  0  0  0  0  0  0  0  0  0  0  0
   21.5448   70.8986   -5.2573 O   0  0  0  0  0  0  0  0  0  0  0  0
   23.7131   72.7314   -6.2222 O   0  0  0  0  0  0  0  0  0  0  0  0
   21.6690   73.2674   -7.9457 O   0  0  0  0  0  0  0  0  0  0  0  0
   22.4449   73.0540   -5.6513 C   0  0  1  0  0  0  0  0  0  0  0  0
   21.3391   72.8013   -6.6540 C   0  0  2  0  0  0  0  0  0  0  0  0
   22.1391   72.0231   -4.5733 C   0  0  1  0  0  0  0  0  0  0  0  0
   21.1997   71.2897   -6.5957 C   0  0  2  0  0  0  0  0  0  0  0  0
   23.9302   73.3765   -6.9139 H   0  0  0  0  0  0  0  0  0  0  0  0
   21.7461   74.2348   -7.9305 H   0  0  0  0  0  0  0  0  0  0  0  0
   20.5363   68.7233   -7.5705 O   0  0  0  0  0  0  0  0  0  0  0  0
   16.0363   69.7172   -7.6514 O   0  0  0  0  0  0  0  0  0  0  0  0
   19.8626   70.8513   -6.8801 N   0  0  0  0  0  0  0  0  0  0  0  0
   18.2958   69.2212   -7.6108 N   0  0  0  0  0  0  0  0  0  0  0  0
   19.6377   69.5418   -7.3668 C   0  0  0  0  0  0  0  0  0  0  0  0
   18.7919   71.7130   -6.6755 C   0  0  0  0  0  0  0  0  0  0  0  0
   17.5182   71.3930   -6.9126 C   0  0  0  0  0  0  0  0  0  0  0  0
   17.1971   70.0442   -7.4234 C   0  0  0  0  0  0  0  0  0  0  0  0
   18.1144   68.3156   -7.9520 H   0  0  0  0  0  0  0  0  0  0  0  0
   21.0561   71.6999   -0.6982 O   0  0  0  0  0  0  0  0  0  0  0  0
   22.1936   70.6755   -0.1783 P   0  0  2  0  0  0  0  0  0  0  0  0
   23.1009   70.4304   -1.4963 O   0  0  0  0  0  0  0  0  0  0  0  0
   21.6540   69.4199    0.4432 O   0  0  0  0  0  0  0  0  0  0  0  0
   23.1249   71.5593    0.7984 O   0  0  0  0  0  0  0  0  0  0  0  0
   24.7894   71.1281    2.4271 O   0  0  0  0  0  0  0  0  0  0  0  0
   22.5661   74.0883    4.2606 O   0  0  0  0  0  0  0  0  0  0  0  0
   21.2419   71.9239    2.8127 O   0  0  0  0  0  0  0  0  0  0  0  0
   25.1530   74.7178    3.0934 O   0  0  0  0  0  0  0  0  0  0  0  0
   23.1462   73.3862    3.1613 C   0  0  2  0  0  0  0  0  0  0  0  0
   22.6264   71.9486    3.1406 C   0  0  2  0  0  0  0  0  0  0  0  0
   24.6660   73.4001    3.3403 C   0  0  1  0  0  0  0  0  0  0  0  0
   23.3943   71.1038    2.1230 C   0  0  1  0  0  0  0  0  0  0  0  0
   25.3497   72.4382    2.3730 C   0  0  1  0  0  0  0  0  0  0  0  0
   21.6003   74.0924    4.1684 H   0  0  0  0  0  0  0  0  0  0  0  0
   20.7486   72.4582    3.4542 H   0  0  0  0  0  0  0  0  0  0  0  0
   24.7255   75.3400    3.7025 H   0  0  0  0  0  0  0  0  0  0  0  0
   27.0651   72.8806    3.9102 O   0  0  0  0  0  0  0  0  0  0  0  0
   27.5690   71.5175    2.1531 O   0  0  0  0  0  0  0  0  0  0  0  0
   26.7726   72.2111    2.7677 C   0  0  0  0  0  0  0  0  0  0  0  0
  1  4  1  0
  1 24  1  0
  1  2  1  1
  1  3  2  0
 25 28  1  0
 25 24  1  0
 25 26  1  6
 25 27  2  0
  6 11  1  0
  6 12  1  0
 29 36  1  0
 29 37  1  0
  9  7  1  6
  7 13  1  0
 10  8  1  6
  8 14  1  0
  4  5  1  0
 36 28  1  6
 33 30  1  1
 30 38  1  0
 34 31  1  6
 31 39  1  0
 35 32  1  6
 32 40  1  0
 41 43  1  0
 15 19  2  0
 42 43  2  0
 16 22  2  0
 12 17  1  1
 17 19  1  0
 17 20  1  0
 18 19  1  0
 18 22  1  0
 18 23  1  0
  9 10  1  0
  9 11  1  0
 10 12  1  0
 11  5  1  1
 33 34  1  0
 33 35  1  0
 34 36  1  0
 35 37  1  0
 37 43  1  1
 20 21  2  0
 21 22  1  0
M  CHG  3   2  -1  26  -1  41  -1
M  END
>  <COMPND>  (23) 
    udp_gluA.pdb 

>  <AUTHOR>  (23) 
    GENERATED BY OPEN BABEL 3.1.1

>  <MASTER>  (23) 
        0    0    0    0    0    0    0    0   56    0   56    0

>  <minimizedAffinity>  (23) 
-7.68698

>  <CNNscore>  (23) 
0.6307205558

>  <CNNaffinity>  (23) 
4.3735060692

>  <CNN_VS>  (23) 
2.7584602833

>  <CNNaffinity_variance>  (23) 
0.0238327812

$$$$
24
     RDKit          3D

 43 45  0  0  0  0  0  0  0  0999 V2000
   23.3365   73.9905   -5.4254 P   0  0  2  0  0  0  0  0  0  0  0  0
   24.1804   72.7386   -4.8428 O   0  0  0  0  0  0  0  0  0  0  0  0
   23.5601   75.2919   -4.7126 O   0  0  0  0  0  0  0  0  0  0  0  0
   21.8101   73.4540   -5.4463 O   0  0  0  0  0  0  0  0  0  0  0  0
   21.5616   72.1078   -5.0854 C   0  0  0  0  0  0  0  0  0  0  0  0
   20.3271   70.1946   -5.8557 O   0  0  0  0  0  0  0  0  0  0  0  0
   20.1264   71.6168   -8.4879 O   0  0  0  0  0  0  0  0  0  0  0  0
   17.6771   72.0694   -7.3779 O   0  0  0  0  0  0  0  0  0  0  0  0
   20.0978   72.1548   -7.1657 C   0  0  1  0  0  0  0  0  0  0  0  0
   18.7680   71.8556   -6.5067 C   0  0  2  0  0  0  0  0  0  0  0  0
   21.0658   71.3493   -6.3098 C   0  0  1  0  0  0  0  0  0  0  0  0
   18.9294   70.3956   -6.1192 C   0  0  2  0  0  0  0  0  0  0  0  0
   19.5155   72.1154   -9.0535 H   0  0  0  0  0  0  0  0  0  0  0  0
   17.6167   73.0135   -7.5946 H   0  0  0  0  0  0  0  0  0  0  0  0
   16.3922   69.1553   -6.1514 O   0  0  0  0  0  0  0  0  0  0  0  0
   16.1424   69.1330   -1.5491 O   0  0  0  0  0  0  0  0  0  0  0  0
   18.1789   70.0544   -4.9439 N   0  0  0  0  0  0  0  0  0  0  0  0
   16.2698   69.1463   -3.8592 N   0  0  0  0  0  0  0  0  0  0  0  0
   16.9136   69.4337   -5.0699 C   0  0  0  0  0  0  0  0  0  0  0  0
   18.6971   70.3327   -3.6850 C   0  0  0  0  0  0  0  0  0  0  0  0
   18.0717   70.0528   -2.5399 C   0  0  0  0  0  0  0  0  0  0  0  0
   16.7445   69.4046   -2.5834 C   0  0  0  0  0  0  0  0  0  0  0  0
   15.3865   68.7159   -3.9214 H   0  0  0  0  0  0  0  0  0  0  0  0
   23.7390   74.0024   -6.9909 O   0  0  0  0  0  0  0  0  0  0  0  0
   22.9682   74.5994   -8.2805 P   0  0  2  0  0  0  0  0  0  0  0  0
   22.0952   75.8133   -7.6603 O   0  0  0  0  0  0  0  0  0  0  0  0
   22.1641   73.5853   -9.0414 O   0  0  0  0  0  0  0  0  0  0  0  0
   24.1197   75.3264   -9.1453 O   0  0  0  0  0  0  0  0  0  0  0  0
   24.9054   73.7686  -10.7469 O   0  0  0  0  0  0  0  0  0  0  0  0
   27.2223   77.0832  -11.5912 O   0  0  0  0  0  0  0  0  0  0  0  0
   26.7032   76.3054   -8.8236 O   0  0  0  0  0  0  0  0  0  0  0  0
   24.9994   76.3764  -13.3261 O   0  0  0  0  0  0  0  0  0  0  0  0
   26.0539   76.3856  -11.1598 C   0  0  2  0  0  0  0  0  0  0  0  0
   26.3983   75.5040   -9.9591 C   0  0  2  0  0  0  0  0  0  0  0  0
   25.5582   75.5271  -12.3257 C   0  0  1  0  0  0  0  0  0  0  0  0
   25.2361   74.5720   -9.6134 C   0  0  1  0  0  0  0  0  0  0  0  0
   24.4887   74.5371  -11.8733 C   0  0  1  0  0  0  0  0  0  0  0  0
   27.5554   77.6356  -10.8665 H   0  0  0  0  0  0  0  0  0  0  0  0
   27.4396   76.8995   -9.0359 H   0  0  0  0  0  0  0  0  0  0  0  0
   25.6700   77.0115  -13.6226 H   0  0  0  0  0  0  0  0  0  0  0  0
   24.7454   72.2982  -12.5234 O   0  0  0  0  0  0  0  0  0  0  0  0
   23.6892   73.6917  -13.9869 O   0  0  0  0  0  0  0  0  0  0  0  0
   24.2516   73.4974  -12.9197 C   0  0  0  0  0  0  0  0  0  0  0  0
  1  4  1  0
  1 24  1  0
  1  2  1  1
  1  3  2  0
 25 28  1  0
 25 24  1  0
 25 26  1  1
 25 27  2  0
  6 11  1  0
  6 12  1  0
 29 36  1  0
 29 37  1  0
  9  7  1  6
  7 13  1  0
 10  8  1  6
  8 14  1  0
  4  5  1  0
 36 28  1  6
 33 30  1  6
 30 38  1  0
 34 31  1  1
 31 39  1  0
 35 32  1  6
 32 40  1  0
 41 43  1  0
 15 19  2  0
 42 43  2  0
 16 22  2  0
 12 17  1  1
 17 19  1  0
 17 20  1  0
 18 19  1  0
 18 22  1  0
 18 23  1  0
  9 10  1  0
  9 11  1  0
 10 12  1  0
 11  5  1  1
 33 34  1  0
 33 35  1  0
 34 36  1  0
 35 37  1  0
 37 43  1  6
 20 21  2  0
 21 22  1  0
M  CHG  3   2  -1  26  -1  41  -1
M  END
>  <COMPND>  (24) 
    udp_gluA.pdb 

>  <AUTHOR>  (24) 
    GENERATED BY OPEN BABEL 3.1.1

>  <MASTER>  (24) 
        0    0    0    0    0    0    0    0   56    0   56    0

>  <minimizedAffinity>  (24) 
-6.66104

>  <CNNscore>  (24) 
0.5948493481

>  <CNNaffinity>  (24) 
4.5370082855

>  <CNN_VS>  (24) 
2.6988363266

>  <CNNaffinity_variance>  (24) 
0.3044397235

$$$$
25
     RDKit          3D

 43 45  0  0  0  0  0  0  0  0999 V2000
   24.0283   71.8394   -2.0715 P   0  0  2  0  0  0  0  0  0  0  0  0
   24.6413   72.9289   -1.0438 O   0  0  0  0  0  0  0  0  0  0  0  0
   25.0327   70.9011   -2.6735 O   0  0  0  0  0  0  0  0  0  0  0  0
   23.1811   72.7308   -3.1230 O   0  0  0  0  0  0  0  0  0  0  0  0
   22.9519   72.2106   -4.4197 C   0  0  0  0  0  0  0  0  0  0  0  0
   20.7153   72.2835   -5.2972 O   0  0  0  0  0  0  0  0  0  0  0  0
   20.9820   75.2693   -5.2212 O   0  0  0  0  0  0  0  0  0  0  0  0
   19.5065   74.7458   -2.9886 O   0  0  0  0  0  0  0  0  0  0  0  0
   21.4940   74.2929   -4.3140 C   0  0  1  0  0  0  0  0  0  0  0  0
   20.3766   73.7369   -3.4570 C   0  0  2  0  0  0  0  0  0  0  0  0
   21.9119   73.0729   -5.1235 C   0  0  1  0  0  0  0  0  0  0  0  0
   19.6944   72.7742   -4.4139 C   0  0  2  0  0  0  0  0  0  0  0  0
   20.7084   76.0583   -4.7270 H   0  0  0  0  0  0  0  0  0  0  0  0
   19.9877   75.3323   -2.3832 H   0  0  0  0  0  0  0  0  0  0  0  0
   17.4372   71.3639   -5.3587 O   0  0  0  0  0  0  0  0  0  0  0  0
   17.4627   68.5260   -1.7269 O   0  0  0  0  0  0  0  0  0  0  0  0
   19.0905   71.6627   -3.7352 N   0  0  0  0  0  0  0  0  0  0  0  0
   17.4514   69.9524   -3.5485 N   0  0  0  0  0  0  0  0  0  0  0  0
   17.9589   71.0239   -4.2951 C   0  0  0  0  0  0  0  0  0  0  0  0
   19.6193   71.2152   -2.5306 C   0  0  0  0  0  0  0  0  0  0  0  0
   19.1247   70.1925   -1.8305 C   0  0  0  0  0  0  0  0  0  0  0  0
   17.9424   69.4712   -2.3456 C   0  0  0  0  0  0  0  0  0  0  0  0
   16.6625   69.4933   -3.9172 H   0  0  0  0  0  0  0  0  0  0  0  0
   22.8767   71.1206   -1.1940 O   0  0  0  0  0  0  0  0  0  0  0  0
   22.9188   70.4750    0.2876 P   0  0  2  0  0  0  0  0  0  0  0  0
   24.3940   69.8127    0.3607 O   0  0  0  0  0  0  0  0  0  0  0  0
   21.7970   69.5196    0.5752 O   0  0  0  0  0  0  0  0  0  0  0  0
   22.9914   71.7416    1.2841 O   0  0  0  0  0  0  0  0  0  0  0  0
   24.7927   71.6218    2.8171 O   0  0  0  0  0  0  0  0  0  0  0  0
   22.7115   74.9032    4.2203 O   0  0  0  0  0  0  0  0  0  0  0  0
   21.2852   72.5098    3.3420 O   0  0  0  0  0  0  0  0  0  0  0  0
   25.1839   75.2690    2.7355 O   0  0  0  0  0  0  0  0  0  0  0  0
   23.2008   73.9947    3.2338 C   0  0  2  0  0  0  0  0  0  0  0  0
   22.6924   72.5855    3.5389 C   0  0  2  0  0  0  0  0  0  0  0  0
   24.7302   74.0295    3.2759 C   0  0  1  0  0  0  0  0  0  0  0  0
   23.3769   71.5512    2.6442 C   0  0  1  0  0  0  0  0  0  0  0  0
   25.3359   72.8909    2.4603 C   0  0  1  0  0  0  0  0  0  0  0  0
   21.7414   74.8981    4.2120 H   0  0  0  0  0  0  0  0  0  0  0  0
   20.8445   73.1636    3.9065 H   0  0  0  0  0  0  0  0  0  0  0  0
   24.8053   76.0021    3.2456 H   0  0  0  0  0  0  0  0  0  0  0  0
   27.2429   71.5312    2.3323 O   0  0  0  0  0  0  0  0  0  0  0  0
   27.4816   73.5660    3.3332 O   0  0  0  0  0  0  0  0  0  0  0  0
   26.7893   72.7324    2.7685 C   0  0  0  0  0  0  0  0  0  0  0  0
  1  4  1  0
  1 24  1  0
  1  2  1  1
  1  3  2  0
 25 28  1  0
 25 24  1  0
 25 26  1  6
 25 27  2  0
  6 11  1  0
  6 12  1  0
 29 36  1  0
 29 37  1  0
  9  7  1  6
  7 13  1  0
 10  8  1  6
  8 14  1  0
  4  5  1  0
 36 28  1  6
 33 30  1  1
 30 38  1  0
 34 31  1  6
 31 39  1  0
 35 32  1  6
 32 40  1  0
 41 43  1  0
 15 19  2  0
 42 43  2  0
 16 22  2  0
 12 17  1  1
 17 19  1  0
 17 20  1  0
 18 19  1  0
 18 22  1  0
 18 23  1  0
  9 10  1  0
  9 11  1  0
 10 12  1  0
 11  5  1  1
 33 34  1  0
 33 35  1  0
 34 36  1  0
 35 37  1  0
 37 43  1  1
 20 21  2  0
 21 22  1  0
M  CHG  3   2  -1  26  -1  41  -1
M  END
>  <COMPND>  (25) 
    udp_gluA.pdb 

>  <AUTHOR>  (25) 
    GENERATED BY OPEN BABEL 3.1.1

>  <MASTER>  (25) 
        0    0    0    0    0    0    0    0   56    0   56    0

>  <minimizedAffinity>  (25) 
-6.86321

>  <CNNscore>  (25) 
0.5739980936

>  <CNNaffinity>  (25) 
4.2356858253

>  <CNN_VS>  (25) 
2.4312756062

>  <CNNaffinity_variance>  (25) 
0.1355217248

$$$$
26
     RDKit          3D

 43 45  0  0  0  0  0  0  0  0999 V2000
   22.4521   71.3308   -2.3638 P   0  0  2  0  0  0  0  0  0  0  0  0
   23.6085   70.7153   -3.3140 O   0  0  0  0  0  0  0  0  0  0  0  0
   22.4941   72.8218   -2.1996 O   0  0  0  0  0  0  0  0  0  0  0  0
   22.5717   70.4700   -0.9991 O   0  0  0  0  0  0  0  0  0  0  0  0
   23.4257   70.9432    0.0262 C   0  0  0  0  0  0  0  0  0  0  0  0
   23.6504   70.7955    2.4148 O   0  0  0  0  0  0  0  0  0  0  0  0
   20.8456   71.8463    2.5572 O   0  0  0  0  0  0  0  0  0  0  0  0
   22.3402   74.0619    3.0990 O   0  0  0  0  0  0  0  0  0  0  0  0
   21.8872   72.1727    1.6368 C   0  0  1  0  0  0  0  0  0  0  0  0
   22.9243   73.0482    2.3079 C   0  0  2  0  0  0  0  0  0  0  0  0
   22.6779   70.9029    1.3527 C   0  0  1  0  0  0  0  0  0  0  0  0
   23.7034   72.0383    3.1331 C   0  0  2  0  0  0  0  0  0  0  0  0
   20.3265   72.6422    2.7541 H   0  0  0  0  0  0  0  0  0  0  0  0
   21.8561   74.6793    2.5277 H   0  0  0  0  0  0  0  0  0  0  0  0
   24.6287   73.7870    5.1486 O   0  0  0  0  0  0  0  0  0  0  0  0
   28.9941   73.4227    3.7152 O   0  0  0  0  0  0  0  0  0  0  0  0
   25.0767   72.4175    3.3095 N   0  0  0  0  0  0  0  0  0  0  0  0
   26.8019   73.6047    4.4321 N   0  0  0  0  0  0  0  0  0  0  0  0
   25.4360   73.3025    4.3534 C   0  0  0  0  0  0  0  0  0  0  0  0
   26.0505   71.9135    2.4559 C   0  0  0  0  0  0  0  0  0  0  0  0
   27.3485   72.2107    2.5435 C   0  0  0  0  0  0  0  0  0  0  0  0
   27.8075   73.1290    3.6062 C   0  0  0  0  0  0  0  0  0  0  0  0
   27.0760   74.2205    5.1497 H   0  0  0  0  0  0  0  0  0  0  0  0
   21.0936   70.7650   -3.0325 O   0  0  0  0  0  0  0  0  0  0  0  0
   19.5870   70.6670   -2.4545 P   0  0  2  0  0  0  0  0  0  0  0  0
   19.3220   72.1489   -1.8595 O   0  0  0  0  0  0  0  0  0  0  0  0
   19.3779   69.5570   -1.4655 O   0  0  0  0  0  0  0  0  0  0  0  0
   18.6505   70.5810   -3.7653 O   0  0  0  0  0  0  0  0  0  0  0  0
   17.0282   72.0470   -4.6752 O   0  0  0  0  0  0  0  0  0  0  0  0
   15.3815   68.3504   -5.5068 O   0  0  0  0  0  0  0  0  0  0  0  0
   16.6317   68.8660   -2.9173 O   0  0  0  0  0  0  0  0  0  0  0  0
   16.6465   69.8933   -7.6211 O   0  0  0  0  0  0  0  0  0  0  0  0
   16.4355   69.2903   -5.2980 C   0  0  2  0  0  0  0  0  0  0  0  0
   16.3353   69.8660   -3.8851 C   0  0  2  0  0  0  0  0  0  0  0  0
   16.2894   70.4035   -6.3379 C   0  0  1  0  0  0  0  0  0  0  0  0
   17.3007   71.0379   -3.7022 C   0  0  1  0  0  0  0  0  0  0  0  0
   17.1940   71.5893   -6.0154 C   0  0  1  0  0  0  0  0  0  0  0  0
   15.4538   67.6336   -4.8571 H   0  0  0  0  0  0  0  0  0  0  0  0
   16.0230   68.1192   -3.0278 H   0  0  0  0  0  0  0  0  0  0  0  0
   16.0782   69.1379   -7.8383 H   0  0  0  0  0  0  0  0  0  0  0  0
   15.6683   72.5487   -7.5165 O   0  0  0  0  0  0  0  0  0  0  0  0
   17.4378   73.8328   -6.8691 O   0  0  0  0  0  0  0  0  0  0  0  0
   16.8124   72.7839   -6.8276 C   0  0  0  0  0  0  0  0  0  0  0  0
  1  4  1  0
  1 24  1  0
  1  2  1  6
  1  3  2  0
 25 28  1  0
 25 24  1  0
 25 26  1  1
 25 27  2  0
  6 11  1  0
  6 12  1  0
 29 36  1  0
 29 37  1  0
  9  7  1  1
  7 13  1  0
 10  8  1  1
  8 14  1  0
  4  5  1  0
 36 28  1  6
 33 30  1  6
 30 38  1  0
 34 31  1  1
 31 39  1  0
 35 32  1  6
 32 40  1  0
 41 43  1  0
 15 19  2  0
 42 43  2  0
 16 22  2  0
 12 17  1  6
 17 19  1  0
 17 20  1  0
 18 19  1  0
 18 22  1  0
 18 23  1  0
  9 10  1  0
  9 11  1  0
 10 12  1  0
 11  5  1  6
 33 34  1  0
 33 35  1  0
 34 36  1  0
 35 37  1  0
 37 43  1  6
 20 21  2  0
 21 22  1  0
M  CHG  3   2  -1  26  -1  41  -1
M  END
>  <COMPND>  (26) 
    udp_gluA.pdb 

>  <AUTHOR>  (26) 
    GENERATED BY OPEN BABEL 3.1.1

>  <MASTER>  (26) 
        0    0    0    0    0    0    0    0   56    0   56    0

>  <minimizedAffinity>  (26) 
-6.97198

>  <CNNscore>  (26) 
0.5594578981

>  <CNNaffinity>  (26) 
4.3130960464

>  <CNN_VS>  (26) 
2.4129955769

>  <CNNaffinity_variance>  (26) 
0.0764518678

$$$$
27
     RDKit          3D

 43 45  0  0  0  0  0  0  0  0999 V2000
   23.0844   71.3898   -2.1621 P   0  0  2  0  0  0  0  0  0  0  0  0
   22.7637   70.1185   -3.1107 O   0  0  0  0  0  0  0  0  0  0  0  0
   23.9293   72.4559   -2.7957 O   0  0  0  0  0  0  0  0  0  0  0  0
   23.6843   70.7269   -0.8136 O   0  0  0  0  0  0  0  0  0  0  0  0
   23.9744   71.5725    0.2843 C   0  0  0  0  0  0  0  0  0  0  0  0
   23.9650   71.0329    2.6266 O   0  0  0  0  0  0  0  0  0  0  0  0
   21.0098   71.5334    2.5398 O   0  0  0  0  0  0  0  0  0  0  0  0
   21.9730   73.8394    3.6311 O   0  0  0  0  0  0  0  0  0  0  0  0
   22.0600   72.1992    1.8382 C   0  0  1  0  0  0  0  0  0  0  0  0
   22.8265   73.1051    2.7786 C   0  0  2  0  0  0  0  0  0  0  0  0
   23.1106   71.1607    1.4694 C   0  0  1  0  0  0  0  0  0  0  0  0
   23.6951   72.1135    3.5336 C   0  0  2  0  0  0  0  0  0  0  0  0
   20.3264   72.1769    2.7861 H   0  0  0  0  0  0  0  0  0  0  0  0
   21.4415   74.4564    3.1031 H   0  0  0  0  0  0  0  0  0  0  0  0
   24.1160   73.3236    6.0506 O   0  0  0  0  0  0  0  0  0  0  0  0
   28.5127   74.2856    5.0569 O   0  0  0  0  0  0  0  0  0  0  0  0
   24.9401   72.6882    3.9587 N   0  0  0  0  0  0  0  0  0  0  0  0
   26.3051   73.8025    5.5529 N   0  0  0  0  0  0  0  0  0  0  0  0
   25.0459   73.2717    5.2434 C   0  0  0  0  0  0  0  0  0  0  0  0
   26.0391   72.6690    3.1086 C   0  0  0  0  0  0  0  0  0  0  0  0
   27.2329   73.1788    3.4177 C   0  0  0  0  0  0  0  0  0  0  0  0
   27.4275   73.8076    4.7406 C   0  0  0  0  0  0  0  0  0  0  0  0
   26.4026   74.2159    6.4411 H   0  0  0  0  0  0  0  0  0  0  0  0
   21.6142   71.8801   -1.7030 O   0  0  0  0  0  0  0  0  0  0  0  0
   20.2716   71.0428   -1.3711 P   0  0  2  0  0  0  0  0  0  0  0  0
   19.3072   72.1470   -0.6848 O   0  0  0  0  0  0  0  0  0  0  0  0
   20.5012   69.8172   -0.5350 O   0  0  0  0  0  0  0  0  0  0  0  0
   19.6020   70.7556   -2.8104 O   0  0  0  0  0  0  0  0  0  0  0  0
   20.1820   71.7013   -4.9028 O   0  0  0  0  0  0  0  0  0  0  0  0
   16.1567   70.9267   -5.4173 O   0  0  0  0  0  0  0  0  0  0  0  0
   17.1400   72.0462   -2.9044 O   0  0  0  0  0  0  0  0  0  0  0  0
   18.1441   69.2088   -6.6624 O   0  0  0  0  0  0  0  0  0  0  0  0
   17.4702   70.7093   -4.9019 C   0  0  2  0  0  0  0  0  0  0  0  0
   17.9116   71.9302   -4.0944 C   0  0  2  0  0  0  0  0  0  0  0  0
   18.4122   70.4861   -6.0870 C   0  0  1  0  0  0  0  0  0  0  0  0
   19.3914   71.8333   -3.7209 C   0  0  1  0  0  0  0  0  0  0  0  0
   19.8743   70.5279   -5.6521 C   0  0  1  0  0  0  0  0  0  0  0  0
   15.5405   71.0710   -4.6820 H   0  0  0  0  0  0  0  0  0  0  0  0
   16.1998   72.1079   -3.1339 H   0  0  0  0  0  0  0  0  0  0  0  0
   17.2165   69.1690   -6.9433 H   0  0  0  0  0  0  0  0  0  0  0  0
   21.1925   71.9202   -7.0030 O   0  0  0  0  0  0  0  0  0  0  0  0
   21.1037   69.7111   -7.5607 O   0  0  0  0  0  0  0  0  0  0  0  0
   20.7773   70.6400   -6.8371 C   0  0  0  0  0  0  0  0  0  0  0  0
  1  4  1  0
  1 24  1  0
  1  2  1  6
  1  3  2  0
 25 28  1  0
 25 24  1  0
 25 26  1  1
 25 27  2  0
  6 11  1  0
  6 12  1  0
 29 36  1  0
 29 37  1  0
  9  7  1  1
  7 13  1  0
 10  8  1  1
  8 14  1  0
  4  5  1  0
 36 28  1  1
 33 30  1  6
 30 38  1  0
 34 31  1  1
 31 39  1  0
 35 32  1  1
 32 40  1  0
 41 43  1  0
 15 19  2  0
 42 43  2  0
 16 22  2  0
 12 17  1  6
 17 19  1  0
 17 20  1  0
 18 19  1  0
 18 22  1  0
 18 23  1  0
  9 10  1  0
  9 11  1  0
 10 12  1  0
 11  5  1  6
 33 34  1  0
 33 35  1  0
 34 36  1  0
 35 37  1  0
 37 43  1  6
 20 21  2  0
 21 22  1  0
M  CHG  3   2  -1  26  -1  41  -1
M  END
>  <COMPND>  (27) 
    udp_gluA.pdb 

>  <AUTHOR>  (27) 
    GENERATED BY OPEN BABEL 3.1.1

>  <MASTER>  (27) 
        0    0    0    0    0    0    0    0   56    0   56    0

>  <minimizedAffinity>  (27) 
-6.69446

>  <CNNscore>  (27) 
0.5481939912

>  <CNNaffinity>  (27) 
4.3122267723

>  <CNN_VS>  (27) 
2.3639369011

>  <CNNaffinity_variance>  (27) 
0.0721913427

$$$$
28
     RDKit          3D

 43 45  0  0  0  0  0  0  0  0999 V2000
   24.2248   74.0467   -4.2383 P   0  0  2  0  0  0  0  0  0  0  0  0
   24.9169   75.3395   -4.9229 O   0  0  0  0  0  0  0  0  0  0  0  0
   25.1738   72.9510   -3.8504 O   0  0  0  0  0  0  0  0  0  0  0  0
   23.0605   73.6309   -5.2822 O   0  0  0  0  0  0  0  0  0  0  0  0
   22.5890   72.2960   -5.2726 C   0  0  0  0  0  0  0  0  0  0  0  0
   21.0315   70.8647   -6.4142 O   0  0  0  0  0  0  0  0  0  0  0  0
   20.8571   73.0215   -8.4901 O   0  0  0  0  0  0  0  0  0  0  0  0
   18.5882   73.4153   -7.0296 O   0  0  0  0  0  0  0  0  0  0  0  0
   21.0036   73.1392   -7.0747 C   0  0  1  0  0  0  0  0  0  0  0  0
   19.6946   72.8205   -6.3840 C   0  0  2  0  0  0  0  0  0  0  0  0
   21.8996   72.0038   -6.5991 C   0  0  1  0  0  0  0  0  0  0  0  0
   19.6641   71.3031   -6.4507 C   0  0  2  0  0  0  0  0  0  0  0  0
   20.2884   73.7364   -8.8172 H   0  0  0  0  0  0  0  0  0  0  0  0
   18.6537   74.3811   -6.9591 H   0  0  0  0  0  0  0  0  0  0  0  0
   19.9466   72.1263   -3.7639 O   0  0  0  0  0  0  0  0  0  0  0  0
   16.9018   68.9944   -2.2929 O   0  0  0  0  0  0  0  0  0  0  0  0
   18.9572   70.7200   -5.3456 N   0  0  0  0  0  0  0  0  0  0  0  0
   18.4306   70.5650   -3.0337 N   0  0  0  0  0  0  0  0  0  0  0  0
   19.1716   71.2071   -4.0346 C   0  0  0  0  0  0  0  0  0  0  0  0
   18.0627   69.6797   -5.5657 C   0  0  0  0  0  0  0  0  0  0  0  0
   17.3635   69.0777   -4.6016 C   0  0  0  0  0  0  0  0  0  0  0  0
   17.5298   69.5261   -3.2035 C   0  0  0  0  0  0  0  0  0  0  0  0
   18.5645   70.8854   -2.1125 H   0  0  0  0  0  0  0  0  0  0  0  0
   23.3968   74.6877   -3.0069 O   0  0  0  0  0  0  0  0  0  0  0  0
   23.8837   75.1999   -1.5529 P   0  0  2  0  0  0  0  0  0  0  0  0
   22.5278   75.7918   -0.8961 O   0  0  0  0  0  0  0  0  0  0  0  0
   25.0268   76.1723   -1.5935 O   0  0  0  0  0  0  0  0  0  0  0  0
   24.1826   73.8496   -0.7223 O   0  0  0  0  0  0  0  0  0  0  0  0
   22.4969   72.6277    0.4066 O   0  0  0  0  0  0  0  0  0  0  0  0
   25.9031   71.3906    2.3904 O   0  0  0  0  0  0  0  0  0  0  0  0
   25.5421   74.2009    1.6786 O   0  0  0  0  0  0  0  0  0  0  0  0
   24.6188   69.6349    0.4619 O   0  0  0  0  0  0  0  0  0  0  0  0
   25.1371   71.8433    1.2740 C   0  0  2  0  0  0  0  0  0  0  0  0
   24.5263   73.2083    1.5921 C   0  0  2  0  0  0  0  0  0  0  0  0
   24.0346   70.8155    1.0090 C   0  0  1  0  0  0  0  0  0  0  0  0
   23.5178   73.6199    0.5187 C   0  0  1  0  0  0  0  0  0  0  0  0
   23.0002   71.3500    0.0227 C   0  0  1  0  0  0  0  0  0  0  0  0
   26.6100   72.0282    2.5775 H   0  0  0  0  0  0  0  0  0  0  0  0
   26.1857   73.9460    2.3577 H   0  0  0  0  0  0  0  0  0  0  0  0
   25.2793   69.2847    1.0799 H   0  0  0  0  0  0  0  0  0  0  0  0
   20.8051   71.0469   -0.7464 O   0  0  0  0  0  0  0  0  0  0  0  0
   21.6581   69.4377    0.6254 O   0  0  0  0  0  0  0  0  0  0  0  0
   21.7759   70.4936    0.0219 C   0  0  0  0  0  0  0  0  0  0  0  0
  1  4  1  0
  1 24  1  0
  1  2  1  6
  1  3  2  0
 25 28  1  0
 25 24  1  0
 25 26  1  1
 25 27  2  0
  6 11  1  0
  6 12  1  0
 29 36  1  0
 29 37  1  0
  9  7  1  6
  7 13  1  0
 10  8  1  6
  8 14  1  0
  4  5  1  0
 36 28  1  6
 33 30  1  1
 30 38  1  0
 34 31  1  6
 31 39  1  0
 35 32  1  6
 32 40  1  0
 41 43  1  0
 15 19  2  0
 42 43  2  0
 16 22  2  0
 12 17  1  1
 17 19  1  0
 17 20  1  0
 18 19  1  0
 18 22  1  0
 18 23  1  0
  9 10  1  0
  9 11  1  0
 10 12  1  0
 11  5  1  1
 33 34  1  0
 33 35  1  0
 34 36  1  0
 35 37  1  0
 37 43  1  1
 20 21  2  0
 21 22  1  0
M  CHG  3   2  -1  26  -1  41  -1
M  END
>  <COMPND>  (28) 
    udp_gluA.pdb 

>  <AUTHOR>  (28) 
    GENERATED BY OPEN BABEL 3.1.1

>  <MASTER>  (28) 
        0    0    0    0    0    0    0    0   56    0   56    0

>  <minimizedAffinity>  (28) 
-7.09047

>  <CNNscore>  (28) 
0.4761129916

>  <CNNaffinity>  (28) 
4.1037759781

>  <CNN_VS>  (28) 
1.9538609982

>  <CNNaffinity_variance>  (28) 
0.4785726070

$$$$
29
     RDKit          3D

 43 45  0  0  0  0  0  0  0  0999 V2000
   21.4322   70.4850   -0.5155 P   0  0  2  0  0  0  0  0  0  0  0  0
   21.8305   69.3848    0.6025 O   0  0  0  0  0  0  0  0  0  0  0  0
   21.0422   71.8282    0.0282 O   0  0  0  0  0  0  0  0  0  0  0  0
   20.3123   69.7384   -1.4135 O   0  0  0  0  0  0  0  0  0  0  0  0
   19.9382   70.3202   -2.6489 C   0  0  0  0  0  0  0  0  0  0  0  0
   18.2764   71.6813   -3.7275 O   0  0  0  0  0  0  0  0  0  0  0  0
   16.5502   71.1418   -1.3357 O   0  0  0  0  0  0  0  0  0  0  0  0
   15.5537   69.4109   -3.1924 O   0  0  0  0  0  0  0  0  0  0  0  0
   17.4809   70.2801   -1.9913 C   0  0  1  0  0  0  0  0  0  0  0  0
   16.9085   69.7934   -3.3057 C   0  0  2  0  0  0  0  0  0  0  0  0
   18.6606   71.1258   -2.4512 C   0  0  1  0  0  0  0  0  0  0  0  0
   17.1011   71.0051   -4.2016 C   0  0  2  0  0  0  0  0  0  0  0  0
   15.7875   70.6239   -1.0329 H   0  0  0  0  0  0  0  0  0  0  0  0
   15.4840   68.6358   -2.6125 H   0  0  0  0  0  0  0  0  0  0  0  0
   16.5759   72.7151   -6.3871 O   0  0  0  0  0  0  0  0  0  0  0  0
   17.8745   69.5142   -9.4386 O   0  0  0  0  0  0  0  0  0  0  0  0
   17.2932   70.6441   -5.5777 N   0  0  0  0  0  0  0  0  0  0  0  0
   17.2222   71.1189   -7.9049 N   0  0  0  0  0  0  0  0  0  0  0  0
   16.9988   71.5772   -6.5998 C   0  0  0  0  0  0  0  0  0  0  0  0
   17.7693   69.3799   -5.9032 C   0  0  0  0  0  0  0  0  0  0  0  0
   17.9772   68.9575   -7.1518 C   0  0  0  0  0  0  0  0  0  0  0  0
   17.6938   69.8708   -8.2782 C   0  0  0  0  0  0  0  0  0  0  0  0
   17.0225   71.7501   -8.6335 H   0  0  0  0  0  0  0  0  0  0  0  0
   22.7248   70.5008   -1.4859 O   0  0  0  0  0  0  0  0  0  0  0  0
   23.6238   71.7266   -2.0365 P   0  0  2  0  0  0  0  0  0  0  0  0
   24.7548   70.9852   -2.9262 O   0  0  0  0  0  0  0  0  0  0  0  0
   24.1704   72.6208   -0.9615 O   0  0  0  0  0  0  0  0  0  0  0  0
   22.6827   72.4727   -3.1136 O   0  0  0  0  0  0  0  0  0  0  0  0
   22.6781   72.0347   -5.4411 O   0  0  0  0  0  0  0  0  0  0  0  0
   21.2499   75.9091   -5.3120 O   0  0  0  0  0  0  0  0  0  0  0  0
   23.4750   75.0934   -3.6038 O   0  0  0  0  0  0  0  0  0  0  0  0
   19.4286   73.6984   -5.8089 O   0  0  0  0  0  0  0  0  0  0  0  0
   21.4506   74.5777   -4.8375 C   0  0  2  0  0  0  0  0  0  0  0  0
   22.9473   74.3140   -4.6710 C   0  0  2  0  0  0  0  0  0  0  0  0
   20.8514   73.6143   -5.8645 C   0  0  1  0  0  0  0  0  0  0  0  0
   23.2140   72.8352   -4.3869 C   0  0  1  0  0  0  0  0  0  0  0  0
   21.2662   72.1728   -5.5844 C   0  0  1  0  0  0  0  0  0  0  0  0
   21.6227   76.5391   -4.6753 H   0  0  0  0  0  0  0  0  0  0  0  0
   23.3090   76.0329   -3.7774 H   0  0  0  0  0  0  0  0  0  0  0  0
   19.1515   74.6111   -5.9854 H   0  0  0  0  0  0  0  0  0  0  0  0
   20.3393   72.0014   -7.7322 O   0  0  0  0  0  0  0  0  0  0  0  0
   21.2310   70.1067   -6.8299 O   0  0  0  0  0  0  0  0  0  0  0  0
   20.9603   71.2958   -6.7547 C   0  0  0  0  0  0  0  0  0  0  0  0
  1  4  1  0
  1 24  1  0
  1  2  1  1
  1  3  2  0
 25 28  1  0
 25 24  1  0
 25 26  1  6
 25 27  2  0
  6 11  1  0
  6 12  1  0
 29 36  1  0
 29 37  1  0
  9  7  1  6
  7 13  1  0
 10  8  1  1
  8 14  1  0
  4  5  1  0
 36 28  1  1
 33 30  1  6
 30 38  1  0
 34 31  1  1
 31 39  1  0
 35 32  1  1
 32 40  1  0
 41 43  1  0
 15 19  2  0
 42 43  2  0
 16 22  2  0
 12 17  1  6
 17 19  1  0
 17 20  1  0
 18 19  1  0
 18 22  1  0
 18 23  1  0
  9 10  1  0
  9 11  1  0
 10 12  1  0
 11  5  1  6
 33 34  1  0
 33 35  1  0
 34 36  1  0
 35 37  1  0
 37 43  1  6
 20 21  2  0
 21 22  1  0
M  CHG  3   2  -1  26  -1  41  -1
M  END
>  <COMPND>  (29) 
    udp_gluA.pdb 

>  <AUTHOR>  (29) 
    GENERATED BY OPEN BABEL 3.1.1

>  <MASTER>  (29) 
        0    0    0    0    0    0    0    0   56    0   56    0

>  <minimizedAffinity>  (29) 
-7.17138

>  <CNNscore>  (29) 
0.4739965200

>  <CNNaffinity>  (29) 
4.0938563347

>  <CNN_VS>  (29) 
1.9404736757

>  <CNNaffinity_variance>  (29) 
0.6556511521

$$$$
30
     RDKit          3D

 43 45  0  0  0  0  0  0  0  0999 V2000
   23.3012   70.5567    0.3153 P   0  0  2  0  0  0  0  0  0  0  0  0
   21.9670   69.6976    0.6329 O   0  0  0  0  0  0  0  0  0  0  0  0
   24.5915   69.8768    0.6686 O   0  0  0  0  0  0  0  0  0  0  0  0
   23.0322   71.9758    1.0444 O   0  0  0  0  0  0  0  0  0  0  0  0
   21.7020   72.4541    1.1232 C   0  0  0  0  0  0  0  0  0  0  0  0
   22.3830   72.1878    3.4130 O   0  0  0  0  0  0  0  0  0  0  0  0
   19.6833   73.2670    4.1468 O   0  0  0  0  0  0  0  0  0  0  0  0
   21.3036   75.4340    4.4858 O   0  0  0  0  0  0  0  0  0  0  0  0
   20.5333   73.6240    3.0566 C   0  0  1  0  0  0  0  0  0  0  0  0
   21.7002   74.4524    3.5512 C   0  0  2  0  0  0  0  0  0  0  0  0
   21.2254   72.3593    2.5669 C   0  0  1  0  0  0  0  0  0  0  0  0
   22.6020   73.3936    4.1623 C   0  0  2  0  0  0  0  0  0  0  0  0
   19.2302   74.0592    4.4767 H   0  0  0  0  0  0  0  0  0  0  0  0
   20.7315   76.0846    4.0483 H   0  0  0  0  0  0  0  0  0  0  0  0
   24.4839   72.9245    6.2154 O   0  0  0  0  0  0  0  0  0  0  0  0
   27.9066   74.7872    3.7539 O   0  0  0  0  0  0  0  0  0  0  0  0
   23.9915   73.7459    4.0843 N   0  0  0  0  0  0  0  0  0  0  0  0
   26.1866   73.8536    4.9879 N   0  0  0  0  0  0  0  0  0  0  0  0
   24.8526   73.4666    5.1718 C   0  0  0  0  0  0  0  0  0  0  0  0
   24.4885   74.3589    2.9406 C   0  0  0  0  0  0  0  0  0  0  0  0
   25.7625   74.7219    2.7799 C   0  0  0  0  0  0  0  0  0  0  0  0
   26.7276   74.4665    3.8693 C   0  0  0  0  0  0  0  0  0  0  0  0
   26.8047   73.6713    5.7322 H   0  0  0  0  0  0  0  0  0  0  0  0
   23.1368   70.9164   -1.2519 O   0  0  0  0  0  0  0  0  0  0  0  0
   24.0632   71.7972   -2.2417 P   0  0  2  0  0  0  0  0  0  0  0  0
   25.3505   70.8468   -2.4866 O   0  0  0  0  0  0  0  0  0  0  0  0
   24.3949   73.1652   -1.7197 O   0  0  0  0  0  0  0  0  0  0  0  0
   23.2781   71.7905   -3.6510 O   0  0  0  0  0  0  0  0  0  0  0  0
   22.6312   73.5798   -5.0613 O   0  0  0  0  0  0  0  0  0  0  0  0
   19.5584   70.8839   -5.6602 O   0  0  0  0  0  0  0  0  0  0  0  0
   20.6153   71.3527   -2.9774 O   0  0  0  0  0  0  0  0  0  0  0  0
   21.6163   71.2243   -7.6851 O   0  0  0  0  0  0  0  0  0  0  0  0
   20.8985   71.2927   -5.3862 C   0  0  2  0  0  0  0  0  0  0  0  0
   20.9240   72.1458   -4.1177 C   0  0  2  0  0  0  0  0  0  0  0  0
   21.3997   72.1037   -6.5832 C   0  0  1  0  0  0  0  0  0  0  0  0
   22.2967   72.7903   -3.9193 C   0  0  1  0  0  0  0  0  0  0  0  0
   22.7102   72.8170   -6.2634 C   0  0  1  0  0  0  0  0  0  0  0  0
   19.2187   70.3667   -4.9130 H   0  0  0  0  0  0  0  0  0  0  0  0
   19.7457   70.9405   -3.0966 H   0  0  0  0  0  0  0  0  0  0  0  0
   20.7898   70.7639   -7.8987 H   0  0  0  0  0  0  0  0  0  0  0  0
   21.8811   74.2707   -7.9068 O   0  0  0  0  0  0  0  0  0  0  0  0
   24.1349   74.2683   -7.5616 O   0  0  0  0  0  0  0  0  0  0  0  0
   23.0174   73.8510   -7.2973 C   0  0  0  0  0  0  0  0  0  0  0  0
  1  4  1  0
  1 24  1  0
  1  2  1  1
  1  3  2  0
 25 28  1  0
 25 24  1  0
 25 26  1  6
 25 27  2  0
  6 11  1  0
  6 12  1  0
 29 36  1  0
 29 37  1  0
  9  7  1  1
  7 13  1  0
 10  8  1  1
  8 14  1  0
  4  5  1  0
 36 28  1  6
 33 30  1  6
 30 38  1  0
 34 31  1  1
 31 39  1  0
 35 32  1  6
 32 40  1  0
 41 43  1  0
 15 19  2  0
 42 43  2  0
 16 22  2  0
 12 17  1  6
 17 19  1  0
 17 20  1  0
 18 19  1  0
 18 22  1  0
 18 23  1  0
  9 10  1  0
  9 11  1  0
 10 12  1  0
 11  5  1  6
 33 34  1  0
 33 35  1  0
 34 36  1  0
 35 37  1  0
 37 43  1  6
 20 21  2  0
 21 22  1  0
M  CHG  3   2  -1  26  -1  41  -1
M  END
>  <COMPND>  (30) 
    udp_gluA.pdb 

>  <AUTHOR>  (30) 
    GENERATED BY OPEN BABEL 3.1.1

>  <MASTER>  (30) 
        0    0    0    0    0    0    0    0   56    0   56    0

>  <minimizedAffinity>  (30) 
-6.77269

>  <CNNscore>  (30) 
0.4549067616

>  <CNNaffinity>  (30) 
4.1149764061

>  <CNN_VS>  (30) 
1.8719305992

>  <CNNaffinity_variance>  (30) 
0.0441664979

$$$$
31
     RDKit          3D

 43 45  0  0  0  0  0  0  0  0999 V2000
   19.4702   71.7018   -2.2226 P   0  0  2  0  0  0  0  0  0  0  0  0
   19.7004   72.9858   -1.2650 O   0  0  0  0  0  0  0  0  0  0  0  0
   18.0354   71.3966   -2.5391 O   0  0  0  0  0  0  0  0  0  0  0  0
   20.2953   70.5181   -1.4905 O   0  0  0  0  0  0  0  0  0  0  0  0
   20.9377   70.8021   -0.2612 C   0  0  0  0  0  0  0  0  0  0  0  0
   22.9482   70.8735   -1.5765 O   0  0  0  0  0  0  0  0  0  0  0  0
   24.3911   70.0610    0.9234 O   0  0  0  0  0  0  0  0  0  0  0  0
   24.8668   72.7435    0.8059 O   0  0  0  0  0  0  0  0  0  0  0  0
   23.2600   70.9189    0.7711 C   0  0  1  0  0  0  0  0  0  0  0  0
   23.6882   72.2545    0.2008 C   0  0  2  0  0  0  0  0  0  0  0  0
   22.3923   70.3583   -0.3474 C   0  0  1  0  0  0  0  0  0  0  0  0
   23.8799   71.9228   -1.2693 C   0  0  2  0  0  0  0  0  0  0  0  0
   24.9605   70.3990    1.6327 H   0  0  0  0  0  0  0  0  0  0  0  0
   24.6929   72.9400    1.7403 H   0  0  0  0  0  0  0  0  0  0  0  0
   25.0592   72.3084   -3.8064 O   0  0  0  0  0  0  0  0  0  0  0  0
   22.7951   76.2696   -4.4592 O   0  0  0  0  0  0  0  0  0  0  0  0
   23.6164   73.0461   -2.1234 N   0  0  0  0  0  0  0  0  0  0  0  0
   23.9312   74.2814   -4.1287 N   0  0  0  0  0  0  0  0  0  0  0  0
   24.2614   73.1448   -3.3789 C   0  0  0  0  0  0  0  0  0  0  0  0
   22.7272   74.0333   -1.7164 C   0  0  0  0  0  0  0  0  0  0  0  0
   22.4224   75.1109   -2.4421 C   0  0  0  0  0  0  0  0  0  0  0  0
   23.0536   75.2904   -3.7660 C   0  0  0  0  0  0  0  0  0  0  0  0
   24.3693   74.3732   -5.0056 H   0  0  0  0  0  0  0  0  0  0  0  0
   20.3864   72.0406   -3.5105 O   0  0  0  0  0  0  0  0  0  0  0  0
   20.0799   72.9264   -4.8277 P   0  0  2  0  0  0  0  0  0  0  0  0
   21.4777   72.8737   -5.6424 O   0  0  0  0  0  0  0  0  0  0  0  0
   19.5863   74.3138   -4.5356 O   0  0  0  0  0  0  0  0  0  0  0  0
   19.0658   72.0249   -5.7003 O   0  0  0  0  0  0  0  0  0  0  0  0
   18.5365   69.7321   -5.4317 O   0  0  0  0  0  0  0  0  0  0  0  0
   18.0243   70.2422   -9.4993 O   0  0  0  0  0  0  0  0  0  0  0  0
   20.2985   71.4604   -8.1289 O   0  0  0  0  0  0  0  0  0  0  0  0
   15.7104   70.0509   -7.7499 O   0  0  0  0  0  0  0  0  0  0  0  0
   18.0182   70.6322   -8.1261 C   0  0  2  0  0  0  0  0  0  0  0  0
   19.4275   70.4962   -7.5491 C   0  0  2  0  0  0  0  0  0  0  0  0
   17.0464   69.7163   -7.3787 C   0  0  1  0  0  0  0  0  0  0  0  0
   19.4176   70.6827   -6.0313 C   0  0  1  0  0  0  0  0  0  0  0  0
   17.1858   69.8711   -5.8670 C   0  0  1  0  0  0  0  0  0  0  0  0
   18.6352   70.8106   -9.9943 H   0  0  0  0  0  0  0  0  0  0  0  0
   20.3094   71.3480   -9.0920 H   0  0  0  0  0  0  0  0  0  0  0  0
   15.6084   69.9566   -8.7099 H   0  0  0  0  0  0  0  0  0  0  0  0
   16.9356   68.6537   -3.8778 O   0  0  0  0  0  0  0  0  0  0  0  0
   15.6280   68.0424   -5.6429 O   0  0  0  0  0  0  0  0  0  0  0  0
   16.4873   68.7598   -5.1533 C   0  0  0  0  0  0  0  0  0  0  0  0
  1  4  1  0
  1 24  1  0
  1  2  1  1
  1  3  2  0
 25 28  1  0
 25 24  1  0
 25 26  1  6
 25 27  2  0
  6 11  1  0
  6 12  1  0
 29 36  1  0
 29 37  1  0
  9  7  1  6
  7 13  1  0
 10  8  1  1
  8 14  1  0
  4  5  1  0
 36 28  1  6
 33 30  1  6
 30 38  1  0
 34 31  1  6
 31 39  1  0
 35 32  1  6
 32 40  1  0
 41 43  1  0
 15 19  2  0
 42 43  2  0
 16 22  2  0
 12 17  1  6
 17 19  1  0
 17 20  1  0
 18 19  1  0
 18 22  1  0
 18 23  1  0
  9 10  1  0
  9 11  1  0
 10 12  1  0
 11  5  1  1
 33 34  1  0
 33 35  1  0
 34 36  1  0
 35 37  1  0
 37 43  1  1
 20 21  2  0
 21 22  1  0
M  CHG  3   2  -1  26  -1  41  -1
M  END
>  <COMPND>  (31) 
    udp_gluA.pdb 

>  <AUTHOR>  (31) 
    GENERATED BY OPEN BABEL 3.1.1

>  <MASTER>  (31) 
        0    0    0    0    0    0    0    0   56    0   56    0

>  <minimizedAffinity>  (31) 
-7.31096

>  <CNNscore>  (31) 
0.4315626919

>  <CNNaffinity>  (31) 
4.1007833481

>  <CNN_VS>  (31) 
1.7697451115

>  <CNNaffinity_variance>  (31) 
0.5675245523

$$$$
32
     RDKit          3D

 43 45  0  0  0  0  0  0  0  0999 V2000
   18.0848   70.0464   -2.5089 P   0  0  2  0  0  0  0  0  0  0  0  0
   17.6025   68.5887   -1.9976 O   0  0  0  0  0  0  0  0  0  0  0  0
   17.2012   71.1869   -2.0963 O   0  0  0  0  0  0  0  0  0  0  0  0
   18.2836   69.8527   -4.1029 O   0  0  0  0  0  0  0  0  0  0  0  0
   17.3296   69.0866   -4.8152 C   0  0  0  0  0  0  0  0  0  0  0  0
   17.2312   71.2759   -5.8025 O   0  0  0  0  0  0  0  0  0  0  0  0
   15.3231   70.0908   -7.7890 O   0  0  0  0  0  0  0  0  0  0  0  0
   17.6659   70.1626   -9.1827 O   0  0  0  0  0  0  0  0  0  0  0  0
   16.4680   69.5009   -7.1728 C   0  0  1  0  0  0  0  0  0  0  0  0
   17.7370   70.0656   -7.7755 C   0  0  2  0  0  0  0  0  0  0  0  0
   16.5433   70.0078   -5.7391 C   0  0  1  0  0  0  0  0  0  0  0  0
   17.8301   71.4230   -7.0998 C   0  0  2  0  0  0  0  0  0  0  0  0
   15.2539   69.7817   -8.7063 H   0  0  0  0  0  0  0  0  0  0  0  0
   17.6082   69.2726   -9.5656 H   0  0  0  0  0  0  0  0  0  0  0  0
   18.5812   74.0597   -6.4213 O   0  0  0  0  0  0  0  0  0  0  0  0
   23.0661   73.0009   -6.5148 O   0  0  0  0  0  0  0  0  0  0  0  0
   19.1870   71.8637   -6.9403 N   0  0  0  0  0  0  0  0  0  0  0  0
   20.8143   73.5301   -6.4695 N   0  0  0  0  0  0  0  0  0  0  0  0
   19.4563   73.2101   -6.5983 C   0  0  0  0  0  0  0  0  0  0  0  0
   20.2332   70.9671   -7.1204 C   0  0  0  0  0  0  0  0  0  0  0  0
   21.5226   71.2868   -6.9941 C   0  0  0  0  0  0  0  0  0  0  0  0
   21.8899   72.6735   -6.6394 C   0  0  0  0  0  0  0  0  0  0  0  0
   21.0267   74.4621   -6.2340 H   0  0  0  0  0  0  0  0  0  0  0  0
   19.6030   70.1388   -1.9619 O   0  0  0  0  0  0  0  0  0  0  0  0
   20.8678   71.0012   -2.4816 P   0  0  2  0  0  0  0  0  0  0  0  0
   20.2524   72.4873   -2.6638 O   0  0  0  0  0  0  0  0  0  0  0  0
   21.5255   70.4490   -3.7131 O   0  0  0  0  0  0  0  0  0  0  0  0
   21.8391   71.1172   -1.1988 O   0  0  0  0  0  0  0  0  0  0  0  0
   22.7340   72.8757    0.1111 O   0  0  0  0  0  0  0  0  0  0  0  0
   26.0045   70.3851   -0.2997 O   0  0  0  0  0  0  0  0  0  0  0  0
   24.2477   70.9097   -2.5741 O   0  0  0  0  0  0  0  0  0  0  0  0
   24.5426   70.4717    2.2115 O   0  0  0  0  0  0  0  0  0  0  0  0
   24.6187   70.7081   -0.1850 C   0  0  2  0  0  0  0  0  0  0  0  0
   24.2082   71.6198   -1.3416 C   0  0  2  0  0  0  0  0  0  0  0  0
   24.4080   71.4190    1.1537 C   0  0  1  0  0  0  0  0  0  0  0  0
   22.7976   72.1712   -1.1295 C   0  0  1  0  0  0  0  0  0  0  0  0
   23.0210   72.0497    1.2373 C   0  0  1  0  0  0  0  0  0  0  0  0
   26.1625   69.9324   -1.1432 H   0  0  0  0  0  0  0  0  0  0  0  0
   25.1398   70.5568   -2.7150 H   0  0  0  0  0  0  0  0  0  0  0  0
   25.4212   70.0628    2.1696 H   0  0  0  0  0  0  0  0  0  0  0  0
   24.1821   73.3398    2.8150 O   0  0  0  0  0  0  0  0  0  0  0  0
   21.9045   73.4328    2.8688 O   0  0  0  0  0  0  0  0  0  0  0  0
   22.9409   73.0051    2.3832 C   0  0  0  0  0  0  0  0  0  0  0  0
  1  4  1  0
  1 24  1  0
  1  2  1  1
  1  3  2  0
 25 28  1  0
 25 24  1  0
 25 26  1  6
 25 27  2  0
  6 11  1  0
  6 12  1  0
 29 36  1  0
 29 37  1  0
  9  7  1  6
  7 13  1  0
 10  8  1  6
  8 14  1  0
  4  5  1  0
 36 28  1  1
 33 30  1  6
 30 38  1  0
 34 31  1  6
 31 39  1  0
 35 32  1  1
 32 40  1  0
 41 43  1  0
 15 19  2  0
 42 43  2  0
 16 22  2  0
 12 17  1  1
 17 19  1  0
 17 20  1  0
 18 19  1  0
 18 22  1  0
 18 23  1  0
  9 10  1  0
  9 11  1  0
 10 12  1  0
 11  5  1  1
 33 34  1  0
 33 35  1  0
 34 36  1  0
 35 37  1  0
 37 43  1  1
 20 21  2  0
 21 22  1  0
M  CHG  3   2  -1  26  -1  41  -1
M  END
>  <COMPND>  (32) 
    udp_gluA.pdb 

>  <AUTHOR>  (32) 
    GENERATED BY OPEN BABEL 3.1.1

>  <MASTER>  (32) 
        0    0    0    0    0    0    0    0   56    0   56    0

>  <minimizedAffinity>  (32) 
-7.83925

>  <CNNscore>  (32) 
0.4259494841

>  <CNNaffinity>  (32) 
4.2134242058

>  <CNN_VS>  (32) 
1.7947058678

>  <CNNaffinity_variance>  (32) 
0.6953312159

$$$$
33
     RDKit          3D

 43 45  0  0  0  0  0  0  0  0999 V2000
   20.2696   73.4938   -4.5319 P   0  0  2  0  0  0  0  0  0  0  0  0
   19.2604   74.2986   -5.5079 O   0  0  0  0  0  0  0  0  0  0  0  0
   19.6797   73.0740   -3.2176 O   0  0  0  0  0  0  0  0  0  0  0  0
   21.5711   74.4511   -4.4442 O   0  0  0  0  0  0  0  0  0  0  0  0
   21.7403   75.2583   -3.2934 C   0  0  0  0  0  0  0  0  0  0  0  0
   23.4559   74.6739   -1.7146 O   0  0  0  0  0  0  0  0  0  0  0  0
   25.4133   75.2367   -3.9153 O   0  0  0  0  0  0  0  0  0  0  0  0
   25.2623   72.5141   -3.9341 O   0  0  0  0  0  0  0  0  0  0  0  0
   24.1115   74.6552   -3.9907 C   0  0  1  0  0  0  0  0  0  0  0  0
   24.1409   73.2347   -3.4676 C   0  0  2  0  0  0  0  0  0  0  0  0
   23.2254   75.3531   -2.9679 C   0  0  1  0  0  0  0  0  0  0  0  0
   24.1698   73.4527   -1.9644 C   0  0  2  0  0  0  0  0  0  0  0  0
   25.9976   74.8069   -4.5599 H   0  0  0  0  0  0  0  0  0  0  0  0
   25.1971   72.4014   -4.8959 H   0  0  0  0  0  0  0  0  0  0  0  0
   24.7743   72.7500    0.7034 O   0  0  0  0  0  0  0  0  0  0  0  0
   21.6739   69.3396    0.7003 O   0  0  0  0  0  0  0  0  0  0  0  0
   23.5357   72.3853   -1.2437 N   0  0  0  0  0  0  0  0  0  0  0  0
   23.2303   71.0514    0.6989 N   0  0  0  0  0  0  0  0  0  0  0  0
   23.9127   72.1145    0.0930 C   0  0  0  0  0  0  0  0  0  0  0  0
   22.5518   71.6212   -1.8594 C   0  0  0  0  0  0  0  0  0  0  0  0
   21.9101   70.6111   -1.2689 C   0  0  0  0  0  0  0  0  0  0  0  0
   22.2453   70.2624    0.1274 C   0  0  0  0  0  0  0  0  0  0  0  0
   23.4771   70.8427    1.6289 H   0  0  0  0  0  0  0  0  0  0  0  0
   20.7781   72.2736   -5.4622 O   0  0  0  0  0  0  0  0  0  0  0  0
   20.6232   72.0138   -7.0503 P   0  0  2  0  0  0  0  0  0  0  0  0
   21.5399   70.7035   -7.3019 O   0  0  0  0  0  0  0  0  0  0  0  0
   20.9836   73.1940   -7.9054 O   0  0  0  0  0  0  0  0  0  0  0  0
   19.1078   71.4919   -7.2338 O   0  0  0  0  0  0  0  0  0  0  0  0
   18.6732   69.6718   -5.7822 O   0  0  0  0  0  0  0  0  0  0  0  0
   15.1480   69.8988   -7.9244 O   0  0  0  0  0  0  0  0  0  0  0  0
   17.7220   70.2031   -9.2721 O   0  0  0  0  0  0  0  0  0  0  0  0
   15.2599   70.8805   -5.1904 O   0  0  0  0  0  0  0  0  0  0  0  0
   16.3268   70.4042   -7.2975 C   0  0  2  0  0  0  0  0  0  0  0  0
   17.5598   69.7585   -7.9302 C   0  0  2  0  0  0  0  0  0  0  0  0
   16.2531   70.0636   -5.8074 C   0  0  1  0  0  0  0  0  0  0  0  0
   18.8227   70.0976   -7.1371 C   0  0  1  0  0  0  0  0  0  0  0  0
   17.5889   70.3112   -5.1126 C   0  0  1  0  0  0  0  0  0  0  0  0
   15.1726   70.1035   -8.8724 H   0  0  0  0  0  0  0  0  0  0  0  0
   16.9242   69.9914   -9.7811 H   0  0  0  0  0  0  0  0  0  0  0  0
   14.4047   70.7325   -5.6236 H   0  0  0  0  0  0  0  0  0  0  0  0
   18.8124   69.8609   -3.1627 O   0  0  0  0  0  0  0  0  0  0  0  0
   16.6737   69.0755   -3.2533 O   0  0  0  0  0  0  0  0  0  0  0  0
   17.6089   69.6768   -3.7600 C   0  0  0  0  0  0  0  0  0  0  0  0
  1  4  1  0
  1 24  1  0
  1  2  1  6
  1  3  2  0
 25 28  1  0
 25 24  1  0
 25 26  1  6
 25 27  2  0
  6 11  1  0
  6 12  1  0
 29 36  1  0
 29 37  1  0
  9  7  1  1
  7 13  1  0
 10  8  1  6
  8 14  1  0
  4  5  1  0
 36 28  1  1
 33 30  1  6
 30 38  1  0
 34 31  1  6
 31 39  1  0
 35 32  1  1
 32 40  1  0
 41 43  1  0
 15 19  2  0
 42 43  2  0
 16 22  2  0
 12 17  1  1
 17 19  1  0
 17 20  1  0
 18 19  1  0
 18 22  1  0
 18 23  1  0
  9 10  1  0
  9 11  1  0
 10 12  1  0
 11  5  1  6
 33 34  1  0
 33 35  1  0
 34 36  1  0
 35 37  1  0
 37 43  1  1
 20 21  2  0
 21 22  1  0
M  CHG  3   2  -1  26  -1  41  -1
M  END
>  <COMPND>  (33) 
    udp_gluA.pdb 

>  <AUTHOR>  (33) 
    GENERATED BY OPEN BABEL 3.1.1

>  <MASTER>  (33) 
        0    0    0    0    0    0    0    0   56    0   56    0

>  <minimizedAffinity>  (33) 
-7.60093

>  <CNNscore>  (33) 
0.4234851301

>  <CNNaffinity>  (33) 
4.1367464066

>  <CNN_VS>  (33) 
1.7518506050

>  <CNNaffinity_variance>  (33) 
0.4444215894

$$$$
34
     RDKit          3D

 43 45  0  0  0  0  0  0  0  0999 V2000
   21.6646   72.3301   -4.8620 P   0  0  2  0  0  0  0  0  0  0  0  0
   23.2366   72.6830   -4.7104 O   0  0  0  0  0  0  0  0  0  0  0  0
   21.3475   71.2753   -5.8811 O   0  0  0  0  0  0  0  0  0  0  0  0
   20.9644   73.7694   -5.0993 O   0  0  0  0  0  0  0  0  0  0  0  0
   19.5867   73.9080   -4.8039 C   0  0  0  0  0  0  0  0  0  0  0  0
   18.5195   73.0934   -6.7977 O   0  0  0  0  0  0  0  0  0  0  0  0
   17.1858   75.7745   -6.9557 O   0  0  0  0  0  0  0  0  0  0  0  0
   15.2239   74.1935   -5.9130 O   0  0  0  0  0  0  0  0  0  0  0  0
   17.5166   74.9961   -5.8053 C   0  0  1  0  0  0  0  0  0  0  0  0
   16.5661   73.8249   -5.6740 C   0  0  2  0  0  0  0  0  0  0  0  0
   18.8440   74.3005   -6.0746 C   0  0  1  0  0  0  0  0  0  0  0  0
   17.1037   72.8636   -6.7204 C   0  0  2  0  0  0  0  0  0  0  0  0
   16.3411   76.2285   -6.8073 H   0  0  0  0  0  0  0  0  0  0  0  0
   14.9284   74.8055   -5.2201 H   0  0  0  0  0  0  0  0  0  0  0  0
   14.6873   71.4830   -7.2015 O   0  0  0  0  0  0  0  0  0  0  0  0
   16.3266   67.5954   -5.3460 O   0  0  0  0  0  0  0  0  0  0  0  0
   16.8719   71.4901   -6.3732 N   0  0  0  0  0  0  0  0  0  0  0  0
   15.5057   69.5483   -6.2760 N   0  0  0  0  0  0  0  0  0  0  0  0
   15.6220   70.8912   -6.6584 C   0  0  0  0  0  0  0  0  0  0  0  0
   17.8758   70.7509   -5.7593 C   0  0  0  0  0  0  0  0  0  0  0  0
   17.7501   69.4717   -5.4008 C   0  0  0  0  0  0  0  0  0  0  0  0
   16.4754   68.7718   -5.6625 C   0  0  0  0  0  0  0  0  0  0  0  0
   14.6439   69.1104   -6.4624 H   0  0  0  0  0  0  0  0  0  0  0  0
   21.2286   71.9587   -3.3505 O   0  0  0  0  0  0  0  0  0  0  0  0
   21.2175   70.5452   -2.5659 P   0  0  2  0  0  0  0  0  0  0  0  0
   22.2894   69.6560   -3.3908 O   0  0  0  0  0  0  0  0  0  0  0  0
   19.8583   69.9193   -2.4438 O   0  0  0  0  0  0  0  0  0  0  0  0
   21.9417   70.8531   -1.1577 O   0  0  0  0  0  0  0  0  0  0  0  0
   22.4939   72.6841    0.2394 O   0  0  0  0  0  0  0  0  0  0  0  0
   26.1132   70.7100   -0.0290 O   0  0  0  0  0  0  0  0  0  0  0  0
   24.4273   71.0395   -2.3920 O   0  0  0  0  0  0  0  0  0  0  0  0
   24.5173   70.5088    2.3925 O   0  0  0  0  0  0  0  0  0  0  0  0
   24.6907   70.8240    0.0102 C   0  0  2  0  0  0  0  0  0  0  0  0
   24.2153   71.6997   -1.1494 C   0  0  2  0  0  0  0  0  0  0  0  0
   24.3036   71.4570    1.3486 C   0  0  1  0  0  0  0  0  0  0  0  0
   22.7293   72.0332   -1.0097 C   0  0  1  0  0  0  0  0  0  0  0  0
   22.8364   71.8760    1.3631 C   0  0  1  0  0  0  0  0  0  0  0  0
   26.3826   70.3102   -0.8709 H   0  0  0  0  0  0  0  0  0  0  0  0
   25.3681   70.8247   -2.4871 H   0  0  0  0  0  0  0  0  0  0  0  0
   25.4475   70.2338    2.3941 H   0  0  0  0  0  0  0  0  0  0  0  0
   21.3624   73.4040    2.3601 O   0  0  0  0  0  0  0  0  0  0  0  0
   23.2862   72.9277    3.4875 O   0  0  0  0  0  0  0  0  0  0  0  0
   22.5530   72.7755    2.5220 C   0  0  0  0  0  0  0  0  0  0  0  0
  1  4  1  0
  1 24  1  0
  1  2  1  1
  1  3  2  0
 25 28  1  0
 25 24  1  0
 25 26  1  6
 25 27  2  0
  6 11  1  0
  6 12  1  0
 29 36  1  0
 29 37  1  0
  9  7  1  6
  7 13  1  0
 10  8  1  6
  8 14  1  0
  4  5  1  0
 36 28  1  1
 33 30  1  1
 30 38  1  0
 34 31  1  6
 31 39  1  0
 35 32  1  1
 32 40  1  0
 41 43  1  0
 15 19  2  0
 42 43  2  0
 16 22  2  0
 12 17  1  1
 17 19  1  0
 17 20  1  0
 18 19  1  0
 18 22  1  0
 18 23  1  0
  9 10  1  0
  9 11  1  0
 10 12  1  0
 11  5  1  1
 33 34  1  0
 33 35  1  0
 34 36  1  0
 35 37  1  0
 37 43  1  1
 20 21  2  0
 21 22  1  0
M  CHG  3   2  -1  26  -1  41  -1
M  END
>  <COMPND>  (34) 
    udp_gluA.pdb 

>  <AUTHOR>  (34) 
    GENERATED BY OPEN BABEL 3.1.1

>  <MASTER>  (34) 
        0    0    0    0    0    0    0    0   56    0   56    0

>  <minimizedAffinity>  (34) 
-6.38298

>  <CNNscore>  (34) 
0.4217933416

>  <CNNaffinity>  (34) 
4.1556797028

>  <CNN_VS>  (34) 
1.7528380156

>  <CNNaffinity_variance>  (34) 
0.1306104064

$$$$
35
     RDKit          3D

 43 45  0  0  0  0  0  0  0  0999 V2000
   22.0523   73.0684   -5.6844 P   0  0  2  0  0  0  0  0  0  0  0  0
   23.6078   72.7494   -5.9966 O   0  0  0  0  0  0  0  0  0  0  0  0
   21.4884   74.2502   -6.4173 O   0  0  0  0  0  0  0  0  0  0  0  0
   21.9883   73.1473   -4.0696 O   0  0  0  0  0  0  0  0  0  0  0  0
   20.9044   73.8316   -3.4685 C   0  0  0  0  0  0  0  0  0  0  0  0
   20.7278   71.6828   -2.4059 O   0  0  0  0  0  0  0  0  0  0  0  0
   18.0181   72.5713   -1.4787 O   0  0  0  0  0  0  0  0  0  0  0  0
   19.5574   72.9368    0.7424 O   0  0  0  0  0  0  0  0  0  0  0  0
   19.2156   73.3336   -1.6321 C   0  0  1  0  0  0  0  0  0  0  0  0
   20.1891   73.0100   -0.5186 C   0  0  2  0  0  0  0  0  0  0  0  0
   19.9505   72.8121   -2.8594 C   0  0  1  0  0  0  0  0  0  0  0  0
   20.7510   71.6725   -0.9697 C   0  0  2  0  0  0  0  0  0  0  0  0
   17.5314   72.8863   -0.7006 H   0  0  0  0  0  0  0  0  0  0  0  0
   19.2170   73.8128    0.9848 H   0  0  0  0  0  0  0  0  0  0  0  0
   21.5891   69.5082    0.6395 O   0  0  0  0  0  0  0  0  0  0  0  0
   25.9547   70.9863    0.6728 O   0  0  0  0  0  0  0  0  0  0  0  0
   22.1007   71.4674   -0.5259 N   0  0  0  0  0  0  0  0  0  0  0  0
   23.7624   70.2470    0.6554 N   0  0  0  0  0  0  0  0  0  0  0  0
   22.4164   70.3479    0.2797 C   0  0  0  0  0  0  0  0  0  0  0  0
   23.0948   72.3677   -0.8897 C   0  0  0  0  0  0  0  0  0  0  0  0
   24.3735   72.2582   -0.5239 C   0  0  0  0  0  0  0  0  0  0  0  0
   24.7868   71.1172    0.3191 C   0  0  0  0  0  0  0  0  0  0  0  0
   24.0060   69.4768    1.2182 H   0  0  0  0  0  0  0  0  0  0  0  0
   21.3216   71.6635   -6.0088 O   0  0  0  0  0  0  0  0  0  0  0  0
   20.5977   71.1289   -7.3519 P   0  0  2  0  0  0  0  0  0  0  0  0
   21.1380   69.6087   -7.4832 O   0  0  0  0  0  0  0  0  0  0  0  0
   20.8436   71.9795   -8.5643 O   0  0  0  0  0  0  0  0  0  0  0  0
   19.0440   70.9751   -6.9459 O   0  0  0  0  0  0  0  0  0  0  0  0
   18.1304   69.3995   -5.4320 O   0  0  0  0  0  0  0  0  0  0  0  0
   14.9203   70.1247   -7.9295 O   0  0  0  0  0  0  0  0  0  0  0  0
   17.6098   69.8140   -9.0270 O   0  0  0  0  0  0  0  0  0  0  0  0
   14.9896   71.2890   -5.2667 O   0  0  0  0  0  0  0  0  0  0  0  0
   16.1177   70.4431   -7.2204 C   0  0  2  0  0  0  0  0  0  0  0  0
   17.2467   69.5216   -7.6826 C   0  0  2  0  0  0  0  0  0  0  0  0
   15.8489   70.2475   -5.7266 C   0  0  1  0  0  0  0  0  0  0  0  0
   18.4785   69.6749   -6.7894 C   0  0  1  0  0  0  0  0  0  0  0  0
   17.1421   70.2893   -4.9177 C   0  0  1  0  0  0  0  0  0  0  0  0
   15.0672   70.2417   -8.8814 H   0  0  0  0  0  0  0  0  0  0  0  0
   16.8328   69.7189   -9.5994 H   0  0  0  0  0  0  0  0  0  0  0  0
   14.1628   71.2735   -5.7736 H   0  0  0  0  0  0  0  0  0  0  0  0
   17.5268   68.5775   -3.3610 O   0  0  0  0  0  0  0  0  0  0  0  0
   16.2778   70.3540   -2.6660 O   0  0  0  0  0  0  0  0  0  0  0  0
   16.9179   69.7770   -3.5322 C   0  0  0  0  0  0  0  0  0  0  0  0
  1  4  1  0
  1 24  1  0
  1  2  1  1
  1  3  2  0
 25 28  1  0
 25 24  1  0
 25 26  1  6
 25 27  2  0
  6 11  1  0
  6 12  1  0
 29 36  1  0
 29 37  1  0
  9  7  1  1
  7 13  1  0
 10  8  1  1
  8 14  1  0
  4  5  1  0
 36 28  1  1
 33 30  1  6
 30 38  1  0
 34 31  1  6
 31 39  1  0
 35 32  1  1
 32 40  1  0
 41 43  1  0
 15 19  2  0
 42 43  2  0
 16 22  2  0
 12 17  1  6
 17 19  1  0
 17 20  1  0
 18 19  1  0
 18 22  1  0
 18 23  1  0
  9 10  1  0
  9 11  1  0
 10 12  1  0
 11  5  1  1
 33 34  1  0
 33 35  1  0
 34 36  1  0
 35 37  1  0
 37 43  1  1
 20 21  2  0
 21 22  1  0
M  CHG  3   2  -1  26  -1  41  -1
M  END
>  <COMPND>  (35) 
    udp_gluA.pdb 

>  <AUTHOR>  (35) 
    GENERATED BY OPEN BABEL 3.1.1

>  <MASTER>  (35) 
        0    0    0    0    0    0    0    0   56    0   56    0

>  <minimizedAffinity>  (35) 
-8.00900

>  <CNNscore>  (35) 
0.4144486189

>  <CNNaffinity>  (35) 
4.2788419724

>  <CNN_VS>  (35) 
1.7733601332

>  <CNNaffinity_variance>  (35) 
0.2964386046

$$$$
36
     RDKit          3D

 43 45  0  0  0  0  0  0  0  0999 V2000
   17.3086   69.4893   -2.5444 P   0  0  2  0  0  0  0  0  0  0  0  0
   17.0976   68.7168   -3.9506 O   0  0  0  0  0  0  0  0  0  0  0  0
   17.0704   68.6541   -1.3207 O   0  0  0  0  0  0  0  0  0  0  0  0
   16.3846   70.8102   -2.6843 O   0  0  0  0  0  0  0  0  0  0  0  0
   15.3116   70.7900   -3.6076 C   0  0  0  0  0  0  0  0  0  0  0  0
   16.5774   72.4668   -4.7754 O   0  0  0  0  0  0  0  0  0  0  0  0
   13.9493   73.4466   -5.8358 O   0  0  0  0  0  0  0  0  0  0  0  0
   14.9413   72.0139   -7.9333 O   0  0  0  0  0  0  0  0  0  0  0  0
   14.3749   72.1098   -5.5706 C   0  0  1  0  0  0  0  0  0  0  0  0
   15.3522   71.6507   -6.6318 C   0  0  2  0  0  0  0  0  0  0  0  0
   15.2472   72.1334   -4.3229 C   0  0  1  0  0  0  0  0  0  0  0  0
   16.6318   72.3502   -6.2060 C   0  0  2  0  0  0  0  0  0  0  0  0
   13.3902   73.4570   -6.6289 H   0  0  0  0  0  0  0  0  0  0  0  0
   14.1233   71.5422   -8.1575 H   0  0  0  0  0  0  0  0  0  0  0  0
   19.2172   73.4678   -6.4139 O   0  0  0  0  0  0  0  0  0  0  0  0
   21.0693   69.4201   -7.6098 O   0  0  0  0  0  0  0  0  0  0  0  0
   17.8075   71.6112   -6.5699 N   0  0  0  0  0  0  0  0  0  0  0  0
   20.1370   71.4509   -7.0103 N   0  0  0  0  0  0  0  0  0  0  0  0
   19.0586   72.2677   -6.6457 C   0  0  0  0  0  0  0  0  0  0  0  0
   17.7150   70.2523   -6.8453 C   0  0  0  0  0  0  0  0  0  0  0  0
   18.7518   69.4869   -7.1915 C   0  0  0  0  0  0  0  0  0  0  0  0
   20.0944   70.0956   -7.2944 C   0  0  0  0  0  0  0  0  0  0  0  0
   21.0180   71.8861   -7.0717 H   0  0  0  0  0  0  0  0  0  0  0  0
   18.8079   70.0791   -2.6757 O   0  0  0  0  0  0  0  0  0  0  0  0
   19.7090   70.9289   -1.6367 P   0  0  2  0  0  0  0  0  0  0  0  0
   20.3355   69.7894   -0.6726 O   0  0  0  0  0  0  0  0  0  0  0  0
   18.9593   72.0087   -0.9116 O   0  0  0  0  0  0  0  0  0  0  0  0
   20.9583   71.4533   -2.5123 O   0  0  0  0  0  0  0  0  0  0  0  0
   22.5581   72.3716   -1.0269 O   0  0  0  0  0  0  0  0  0  0  0  0
   24.3849   72.9431   -4.6882 O   0  0  0  0  0  0  0  0  0  0  0  0
   21.5259   73.4490   -4.3646 O   0  0  0  0  0  0  0  0  0  0  0  0
   25.2933   70.8225   -2.9194 O   0  0  0  0  0  0  0  0  0  0  0  0
   23.5554   72.2782   -3.7353 C   0  0  2  0  0  0  0  0  0  0  0  0
   22.4318   73.2157   -3.2925 C   0  0  2  0  0  0  0  0  0  0  0  0
   24.4272   71.8900   -2.5389 C   0  0  1  0  0  0  0  0  0  0  0  0
   21.6622   72.6267   -2.1094 C   0  0  1  0  0  0  0  0  0  0  0  0
   23.5784   71.4316   -1.3566 C   0  0  1  0  0  0  0  0  0  0  0  0
   23.8523   73.1994   -5.4576 H   0  0  0  0  0  0  0  0  0  0  0  0
   22.0075   73.8225   -5.1189 H   0  0  0  0  0  0  0  0  0  0  0  0
   25.8391   71.1012   -3.6712 H   0  0  0  0  0  0  0  0  0  0  0  0
   24.8110   72.6125    0.2520 O   0  0  0  0  0  0  0  0  0  0  0  0
   24.6581   70.3524    0.5118 O   0  0  0  0  0  0  0  0  0  0  0  0
   24.3963   71.3726   -0.1076 C   0  0  0  0  0  0  0  0  0  0  0  0
  1  4  1  0
  1 24  1  0
  1  2  1  6
  1  3  2  0
 25 28  1  0
 25 24  1  0
 25 26  1  1
 25 27  2  0
  6 11  1  0
  6 12  1  0
 29 36  1  0
 29 37  1  0
  9  7  1  6
  7 13  1  0
 10  8  1  6
  8 14  1  0
  4  5  1  0
 36 28  1  6
 33 30  1  6
 30 38  1  0
 34 31  1  6
 31 39  1  0
 35 32  1  6
 32 40  1  0
 41 43  1  0
 15 19  2  0
 42 43  2  0
 16 22  2  0
 12 17  1  1
 17 19  1  0
 17 20  1  0
 18 19  1  0
 18 22  1  0
 18 23  1  0
  9 10  1  0
  9 11  1  0
 10 12  1  0
 11  5  1  6
 33 34  1  0
 33 35  1  0
 34 36  1  0
 35 37  1  0
 37 43  1  1
 20 21  2  0
 21 22  1  0
M  CHG  3   2  -1  26  -1  41  -1
M  END
>  <COMPND>  (36) 
    udp_gluA.pdb 

>  <AUTHOR>  (36) 
    GENERATED BY OPEN BABEL 3.1.1

>  <MASTER>  (36) 
        0    0    0    0    0    0    0    0   56    0   56    0

>  <minimizedAffinity>  (36) 
-7.77457

>  <CNNscore>  (36) 
0.4094348848

>  <CNNaffinity>  (36) 
4.1691575050

>  <CNN_VS>  (36) 
1.7069984674

>  <CNNaffinity_variance>  (36) 
0.4550665915

$$$$
37
     RDKit          3D

 43 45  0  0  0  0  0  0  0  0999 V2000
   17.1589   69.4489   -2.2621 P   0  0  2  0  0  0  0  0  0  0  0  0
   16.6955   68.5356   -1.0091 O   0  0  0  0  0  0  0  0  0  0  0  0
   17.6779   68.6853   -3.4450 O   0  0  0  0  0  0  0  0  0  0  0  0
   18.1862   70.5140   -1.6077 O   0  0  0  0  0  0  0  0  0  0  0  0
   19.3908   70.8010   -2.2940 C   0  0  0  0  0  0  0  0  0  0  0  0
   21.7259   70.2449   -2.4196 O   0  0  0  0  0  0  0  0  0  0  0  0
   21.5063   69.4718    0.4693 O   0  0  0  0  0  0  0  0  0  0  0  0
   22.6589   71.9397    0.5989 O   0  0  0  0  0  0  0  0  0  0  0  0
   20.8593   70.5326   -0.2339 C   0  0  1  0  0  0  0  0  0  0  0  0
   21.8411   71.6502   -0.5155 C   0  0  2  0  0  0  0  0  0  0  0  0
   20.5314   70.0359   -1.6354 C   0  0  1  0  0  0  0  0  0  0  0  0
   22.6278   71.0907   -1.6885 C   0  0  2  0  0  0  0  0  0  0  0  0
   21.7256   69.7655    1.3678 H   0  0  0  0  0  0  0  0  0  0  0  0
   22.1117   72.2931    1.3184 H   0  0  0  0  0  0  0  0  0  0  0  0
   25.1808   71.0819   -2.8963 O   0  0  0  0  0  0  0  0  0  0  0  0
   24.3889   75.0928   -5.0246 O   0  0  0  0  0  0  0  0  0  0  0  0
   23.1146   72.1202   -2.5627 N   0  0  0  0  0  0  0  0  0  0  0  0
   24.7843   73.0801   -3.9544 N   0  0  0  0  0  0  0  0  0  0  0  0
   24.4126   72.0201   -3.1169 C   0  0  0  0  0  0  0  0  0  0  0  0
   22.3095   73.2119   -2.8643 C   0  0  0  0  0  0  0  0  0  0  0  0
   22.6777   74.2145   -3.6644 C   0  0  0  0  0  0  0  0  0  0  0  0
   24.0191   74.1871   -4.2835 C   0  0  0  0  0  0  0  0  0  0  0  0
   25.6845   73.0336   -4.3504 H   0  0  0  0  0  0  0  0  0  0  0  0
   15.8479   70.3456   -2.5620 O   0  0  0  0  0  0  0  0  0  0  0  0
   15.5743   71.4872   -3.6736 P   0  0  2  0  0  0  0  0  0  0  0  0
   16.4864   72.7243   -3.1656 O   0  0  0  0  0  0  0  0  0  0  0  0
   14.1242   71.8257   -3.8647 O   0  0  0  0  0  0  0  0  0  0  0  0
   16.3174   70.9518   -5.0016 O   0  0  0  0  0  0  0  0  0  0  0  0
   18.0891   72.2606   -5.8717 O   0  0  0  0  0  0  0  0  0  0  0  0
   17.3175   69.6938   -9.0156 O   0  0  0  0  0  0  0  0  0  0  0  0
   15.1202   70.8955   -7.5115 O   0  0  0  0  0  0  0  0  0  0  0  0
   19.6526   69.2808   -7.3341 O   0  0  0  0  0  0  0  0  0  0  0  0
   17.4041   70.0880   -7.6463 C   0  0  2  0  0  0  0  0  0  0  0  0
   16.4844   71.2841   -7.3990 C   0  0  2  0  0  0  0  0  0  0  0  0
   18.8581   70.4652   -7.3538 C   0  0  1  0  0  0  0  0  0  0  0  0
   16.7203   71.8774   -6.0093 C   0  0  1  0  0  0  0  0  0  0  0  0
   18.9915   71.1646   -6.0042 C   0  0  1  0  0  0  0  0  0  0  0  0
   16.4021   69.4496   -9.2247 H   0  0  0  0  0  0  0  0  0  0  0  0
   14.9635   70.5179   -8.3908 H   0  0  0  0  0  0  0  0  0  0  0  0
   19.5763   68.8260   -8.1875 H   0  0  0  0  0  0  0  0  0  0  0  0
   20.2245   73.1599   -6.0084 O   0  0  0  0  0  0  0  0  0  0  0  0
   21.3804   71.2236   -5.6710 O   0  0  0  0  0  0  0  0  0  0  0  0
   20.3304   71.8147   -5.8737 C   0  0  0  0  0  0  0  0  0  0  0  0
  1  4  1  0
  1 24  1  0
  1  2  1  1
  1  3  2  0
 25 28  1  0
 25 24  1  0
 25 26  1  1
 25 27  2  0
  6 11  1  0
  6 12  1  0
 29 36  1  0
 29 37  1  0
  9  7  1  1
  7 13  1  0
 10  8  1  1
  8 14  1  0
  4  5  1  0
 36 28  1  1
 33 30  1  6
 30 38  1  0
 34 31  1  1
 31 39  1  0
 35 32  1  1
 32 40  1  0
 41 43  1  0
 15 19  2  0
 42 43  2  0
 16 22  2  0
 12 17  1  6
 17 19  1  0
 17 20  1  0
 18 19  1  0
 18 22  1  0
 18 23  1  0
  9 10  1  0
  9 11  1  0
 10 12  1  0
 11  5  1  6
 33 34  1  0
 33 35  1  0
 34 36  1  0
 35 37  1  0
 37 43  1  6
 20 21  2  0
 21 22  1  0
M  CHG  3   2  -1  26  -1  41  -1
M  END
>  <COMPND>  (37) 
    udp_gluA.pdb 

>  <AUTHOR>  (37) 
    GENERATED BY OPEN BABEL 3.1.1

>  <MASTER>  (37) 
        0    0    0    0    0    0    0    0   56    0   56    0

>  <minimizedAffinity>  (37) 
-7.90356

>  <CNNscore>  (37) 
0.4044575691

>  <CNNaffinity>  (37) 
4.0527338982

>  <CNN_VS>  (37) 
1.6391588449

>  <CNNaffinity_variance>  (37) 
0.7492620349

$$$$
38
     RDKit          3D

 43 45  0  0  0  0  0  0  0  0999 V2000
   21.5651   73.0042   -4.4008 P   0  0  2  0  0  0  0  0  0  0  0  0
   21.7716   74.4954   -4.9946 O   0  0  0  0  0  0  0  0  0  0  0  0
   21.7418   71.8957   -5.3967 O   0  0  0  0  0  0  0  0  0  0  0  0
   20.1212   73.0720   -3.6738 O   0  0  0  0  0  0  0  0  0  0  0  0
   19.7412   72.0051   -2.8242 C   0  0  0  0  0  0  0  0  0  0  0  0
   17.5165   72.2700   -3.6948 O   0  0  0  0  0  0  0  0  0  0  0  0
   16.5553   71.3750   -0.9992 O   0  0  0  0  0  0  0  0  0  0  0  0
   16.2905   69.1176   -2.5059 O   0  0  0  0  0  0  0  0  0  0  0  0
   17.6984   70.9459   -1.7392 C   0  0  1  0  0  0  0  0  0  0  0  0
   17.2749   70.0554   -2.8882 C   0  0  2  0  0  0  0  0  0  0  0  0
   18.2681   72.1558   -2.4671 C   0  0  1  0  0  0  0  0  0  0  0  0
   16.7584   71.0668   -3.8972 C   0  0  2  0  0  0  0  0  0  0  0  0
   16.1738   70.6189   -0.5255 H   0  0  0  0  0  0  0  0  0  0  0  0
   16.6684   68.4961   -1.8633 H   0  0  0  0  0  0  0  0  0  0  0  0
   15.1541   71.9044   -6.0654 O   0  0  0  0  0  0  0  0  0  0  0  0
   17.5213   69.3146   -9.0543 O   0  0  0  0  0  0  0  0  0  0  0  0
   16.9335   70.6271   -5.2526 N   0  0  0  0  0  0  0  0  0  0  0  0
   16.3340   70.6129   -7.5518 N   0  0  0  0  0  0  0  0  0  0  0  0
   16.0731   71.1084   -6.2675 C   0  0  0  0  0  0  0  0  0  0  0  0
   17.9485   69.7311   -5.5654 C   0  0  0  0  0  0  0  0  0  0  0  0
   18.1850   69.2679   -6.7943 C   0  0  0  0  0  0  0  0  0  0  0  0
   17.3308   69.7205   -7.9119 C   0  0  0  0  0  0  0  0  0  0  0  0
   15.7467   70.9321   -8.2747 H   0  0  0  0  0  0  0  0  0  0  0  0
   22.5966   72.9628   -3.1570 O   0  0  0  0  0  0  0  0  0  0  0  0
   23.9331   72.0859   -2.9152 P   0  0  2  0  0  0  0  0  0  0  0  0
   24.9178   72.5774   -4.1022 O   0  0  0  0  0  0  0  0  0  0  0  0
   23.6988   70.6034   -2.8801 O   0  0  0  0  0  0  0  0  0  0  0  0
   24.5830   72.6930   -1.5693 O   0  0  0  0  0  0  0  0  0  0  0  0
   22.7006   72.5595   -0.1383 O   0  0  0  0  0  0  0  0  0  0  0  0
   25.7549   73.2611    2.5537 O   0  0  0  0  0  0  0  0  0  0  0  0
   25.6531   74.7100    0.0190 O   0  0  0  0  0  0  0  0  0  0  0  0
   24.6170   70.5981    2.2993 O   0  0  0  0  0  0  0  0  0  0  0  0
   25.1615   72.7492    1.3605 C   0  0  2  0  0  0  0  0  0  0  0  0
   24.5984   73.9046    0.5325 C   0  0  2  0  0  0  0  0  0  0  0  0
   24.0410   71.7882    1.7642 C   0  0  1  0  0  0  0  0  0  0  0  0
   23.7570   73.3832   -0.6332 C   0  0  1  0  0  0  0  0  0  0  0  0
   23.1704   71.4136    0.5682 C   0  0  1  0  0  0  0  0  0  0  0  0
   26.4699   73.8745    2.3220 H   0  0  0  0  0  0  0  0  0  0  0  0
   26.1912   75.0440    0.7533 H   0  0  0  0  0  0  0  0  0  0  0  0
   25.1737   70.8226    3.0612 H   0  0  0  0  0  0  0  0  0  0  0  0
   21.8915   69.4493    0.6519 O   0  0  0  0  0  0  0  0  0  0  0  0
   21.0074   71.3085    1.6321 O   0  0  0  0  0  0  0  0  0  0  0  0
   21.9068   70.7550    1.0175 C   0  0  0  0  0  0  0  0  0  0  0  0
  1  4  1  0
  1 24  1  0
  1  2  1  6
  1  3  2  0
 25 28  1  0
 25 24  1  0
 25 26  1  6
 25 27  2  0
  6 11  1  0
  6 12  1  0
 29 36  1  0
 29 37  1  0
  9  7  1  1
  7 13  1  0
 10  8  1  1
  8 14  1  0
  4  5  1  0
 36 28  1  6
 33 30  1  1
 30 38  1  0
 34 31  1  6
 31 39  1  0
 35 32  1  6
 32 40  1  0
 41 43  1  0
 15 19  2  0
 42 43  2  0
 16 22  2  0
 12 17  1  6
 17 19  1  0
 17 20  1  0
 18 19  1  0
 18 22  1  0
 18 23  1  0
  9 10  1  0
  9 11  1  0
 10 12  1  0
 11  5  1  6
 33 34  1  0
 33 35  1  0
 34 36  1  0
 35 37  1  0
 37 43  1  1
 20 21  2  0
 21 22  1  0
M  CHG  3   2  -1  26  -1  41  -1
M  END
>  <COMPND>  (38) 
    udp_gluA.pdb 

>  <AUTHOR>  (38) 
    GENERATED BY OPEN BABEL 3.1.1

>  <MASTER>  (38) 
        0    0    0    0    0    0    0    0   56    0   56    0

>  <minimizedAffinity>  (38) 
-7.31604

>  <CNNscore>  (38) 
0.3902235329

>  <CNNaffinity>  (38) 
4.3107237816

>  <CNN_VS>  (38) 
1.6821458340

>  <CNNaffinity_variance>  (38) 
0.1938634217

$$$$
39
     RDKit          3D

 43 45  0  0  0  0  0  0  0  0999 V2000
   20.3857   73.3312   -6.6047 P   0  0  2  0  0  0  0  0  0  0  0  0
   19.7955   74.7532   -6.1062 O   0  0  0  0  0  0  0  0  0  0  0  0
   21.0961   73.3682   -7.9260 O   0  0  0  0  0  0  0  0  0  0  0  0
   19.1165   72.3315   -6.5171 O   0  0  0  0  0  0  0  0  0  0  0  0
   18.6984   71.8798   -5.2421 C   0  0  0  0  0  0  0  0  0  0  0  0
   18.2059   69.9171   -3.9448 O   0  0  0  0  0  0  0  0  0  0  0  0
   18.0088   68.4645   -6.5606 O   0  0  0  0  0  0  0  0  0  0  0  0
   15.3932   68.8846   -5.9138 O   0  0  0  0  0  0  0  0  0  0  0  0
   17.6223   69.8004   -6.2375 C   0  0  1  0  0  0  0  0  0  0  0  0
   16.3516   69.7939   -5.4144 C   0  0  2  0  0  0  0  0  0  0  0  0
   18.6386   70.3577   -5.2502 C   0  0  1  0  0  0  0  0  0  0  0  0
   16.8680   69.4032   -4.0402 C   0  0  2  0  0  0  0  0  0  0  0  0
   17.3741   68.0872   -7.1903 H   0  0  0  0  0  0  0  0  0  0  0  0
   15.0956   69.1773   -6.7900 H   0  0  0  0  0  0  0  0  0  0  0  0
   16.9517   68.5221   -1.3581 O   0  0  0  0  0  0  0  0  0  0  0  0
   13.7899   71.6114   -0.0531 O   0  0  0  0  0  0  0  0  0  0  0  0
   16.0772   69.9596   -2.9790 N   0  0  0  0  0  0  0  0  0  0  0  0
   15.3761   70.0609   -0.7109 N   0  0  0  0  0  0  0  0  0  0  0  0
   16.1945   69.4443   -1.6665 C   0  0  0  0  0  0  0  0  0  0  0  0
   15.1995   71.0042   -3.2425 C   0  0  0  0  0  0  0  0  0  0  0  0
   14.4260   71.5818   -2.3212 C   0  0  0  0  0  0  0  0  0  0  0  0
   14.4874   71.1020   -0.9250 C   0  0  0  0  0  0  0  0  0  0  0  0
   15.4388   69.7178    0.2098 H   0  0  0  0  0  0  0  0  0  0  0  0
   21.3038   72.8628   -5.3595 O   0  0  0  0  0  0  0  0  0  0  0  0
   22.8642   73.1299   -5.0316 P   0  0  2  0  0  0  0  0  0  0  0  0
   22.9331   74.7363   -4.8443 O   0  0  0  0  0  0  0  0  0  0  0  0
   23.8117   72.5862   -6.0615 O   0  0  0  0  0  0  0  0  0  0  0  0
   23.0776   72.5373   -3.5464 O   0  0  0  0  0  0  0  0  0  0  0  0
   21.5575   72.1845   -1.7649 O   0  0  0  0  0  0  0  0  0  0  0  0
   25.0020   73.2285    0.2633 O   0  0  0  0  0  0  0  0  0  0  0  0
   24.2179   74.6611   -2.1589 O   0  0  0  0  0  0  0  0  0  0  0  0
   24.1432   70.4525    0.1784 O   0  0  0  0  0  0  0  0  0  0  0  0
   24.2370   72.6539   -0.7962 C   0  0  2  0  0  0  0  0  0  0  0  0
   23.3891   73.7383   -1.4616 C   0  0  2  0  0  0  0  0  0  0  0  0
   23.3391   71.5692   -0.1969 C   0  0  1  0  0  0  0  0  0  0  0  0
   22.3899   73.1256   -2.4439 C   0  0  1  0  0  0  0  0  0  0  0  0
   22.2887   71.0991   -1.1990 C   0  0  1  0  0  0  0  0  0  0  0  0
   25.5803   73.9208   -0.0938 H   0  0  0  0  0  0  0  0  0  0  0  0
   24.8547   75.0535   -1.5417 H   0  0  0  0  0  0  0  0  0  0  0  0
   24.8160   70.7382    0.8160 H   0  0  0  0  0  0  0  0  0  0  0  0
   21.4175   70.2942    0.8245 O   0  0  0  0  0  0  0  0  0  0  0  0
   20.3090   69.7247   -1.0850 O   0  0  0  0  0  0  0  0  0  0  0  0
   21.2270   70.2981   -0.5181 C   0  0  0  0  0  0  0  0  0  0  0  0
  1  4  1  0
  1 24  1  0
  1  2  1  1
  1  3  2  0
 25 28  1  0
 25 24  1  0
 25 26  1  1
 25 27  2  0
  6 11  1  0
  6 12  1  0
 29 36  1  0
 29 37  1  0
  9  7  1  1
  7 13  1  0
 10  8  1  6
  8 14  1  0
  4  5  1  0
 36 28  1  6
 33 30  1  1
 30 38  1  0
 34 31  1  6
 31 39  1  0
 35 32  1  6
 32 40  1  0
 41 43  1  0
 15 19  2  0
 42 43  2  0
 16 22  2  0
 12 17  1  1
 17 19  1  0
 17 20  1  0
 18 19  1  0
 18 22  1  0
 18 23  1  0
  9 10  1  0
  9 11  1  0
 10 12  1  0
 11  5  1  1
 33 34  1  0
 33 35  1  0
 34 36  1  0
 35 37  1  0
 37 43  1  1
 20 21  2  0
 21 22  1  0
M  CHG  3   2  -1  26  -1  41  -1
M  END
>  <COMPND>  (39) 
    udp_gluA.pdb 

>  <AUTHOR>  (39) 
    GENERATED BY OPEN BABEL 3.1.1

>  <MASTER>  (39) 
        0    0    0    0    0    0    0    0   56    0   56    0

>  <minimizedAffinity>  (39) 
-6.80190

>  <CNNscore>  (39) 
0.3826949894

>  <CNNaffinity>  (39) 
4.0615005493

>  <CNN_VS>  (39) 
1.5543159246

>  <CNNaffinity_variance>  (39) 
0.4509426057

$$$$
40
     RDKit          3D

 43 45  0  0  0  0  0  0  0  0999 V2000
   22.0503   72.3127   -4.3980 P   0  0  2  0  0  0  0  0  0  0  0  0
   23.5169   72.3507   -5.0811 O   0  0  0  0  0  0  0  0  0  0  0  0
   21.4521   73.6577   -4.1067 O   0  0  0  0  0  0  0  0  0  0  0  0
   22.2415   71.3373   -3.1213 O   0  0  0  0  0  0  0  0  0  0  0  0
   22.8258   71.8684   -1.9462 C   0  0  0  0  0  0  0  0  0  0  0  0
   24.1390   70.9888   -0.1352 O   0  0  0  0  0  0  0  0  0  0  0  0
   21.6882   69.4486    0.6478 O   0  0  0  0  0  0  0  0  0  0  0  0
   21.6638   71.5381    2.3997 O   0  0  0  0  0  0  0  0  0  0  0  0
   21.7928   70.7625    0.0989 C   0  0  1  0  0  0  0  0  0  0  0  0
   22.2921   71.7313    1.1497 C   0  0  2  0  0  0  0  0  0  0  0  0
   22.9380   70.7627   -0.9045 C   0  0  1  0  0  0  0  0  0  0  0  0
   23.7780   71.4175    1.1873 C   0  0  2  0  0  0  0  0  0  0  0  0
   20.9629   69.4237    1.2919 H   0  0  0  0  0  0  0  0  0  0  0  0
   20.7200   71.7511    2.3236 H   0  0  0  0  0  0  0  0  0  0  0  0
   26.3366   71.2793    2.3753 O   0  0  0  0  0  0  0  0  0  0  0  0
   26.7285   75.8701    2.4977 O   0  0  0  0  0  0  0  0  0  0  0  0
   24.5709   72.5611    1.5401 N   0  0  0  0  0  0  0  0  0  0  0  0
   26.5289   73.5659    2.4361 N   0  0  0  0  0  0  0  0  0  0  0  0
   25.8433   72.3823    2.1326 C   0  0  0  0  0  0  0  0  0  0  0  0
   24.0880   73.8414    1.2976 C   0  0  0  0  0  0  0  0  0  0  0  0
   24.7531   74.9601    1.5923 C   0  0  0  0  0  0  0  0  0  0  0  0
   26.0898   74.8611    2.2144 C   0  0  0  0  0  0  0  0  0  0  0  0
   27.4162   73.4668    2.8511 H   0  0  0  0  0  0  0  0  0  0  0  0
   21.1951   71.4036   -5.4251 O   0  0  0  0  0  0  0  0  0  0  0  0
   20.5063   71.7653   -6.8422 P   0  0  2  0  0  0  0  0  0  0  0  0
   21.0995   70.6374   -7.8404 O   0  0  0  0  0  0  0  0  0  0  0  0
   20.7381   73.1772   -7.2970 O   0  0  0  0  0  0  0  0  0  0  0  0
   18.9538   71.3683   -6.6559 O   0  0  0  0  0  0  0  0  0  0  0  0
   18.1820   69.5101   -5.4067 O   0  0  0  0  0  0  0  0  0  0  0  0
   15.0477   70.1213   -8.0279 O   0  0  0  0  0  0  0  0  0  0  0  0
   17.8116   70.3018   -8.9568 O   0  0  0  0  0  0  0  0  0  0  0  0
   14.8072   70.9411   -5.2492 O   0  0  0  0  0  0  0  0  0  0  0  0
   16.1484   70.5005   -7.2017 C   0  0  2  0  0  0  0  0  0  0  0  0
   17.4173   69.7983   -7.6856 C   0  0  2  0  0  0  0  0  0  0  0  0
   15.8257   70.0858   -5.7644 C   0  0  1  0  0  0  0  0  0  0  0  0
   18.5644   69.9966   -6.6938 C   0  0  1  0  0  0  0  0  0  0  0  0
   17.0536   70.1927   -4.8647 C   0  0  1  0  0  0  0  0  0  0  0  0
   15.2302   70.3749   -8.9464 H   0  0  0  0  0  0  0  0  0  0  0  0
   17.0883   70.1795   -9.5910 H   0  0  0  0  0  0  0  0  0  0  0  0
   14.0200   70.8824   -5.8129 H   0  0  0  0  0  0  0  0  0  0  0  0
   17.7981   68.5685   -3.3451 O   0  0  0  0  0  0  0  0  0  0  0  0
   15.8931   69.7003   -2.8075 O   0  0  0  0  0  0  0  0  0  0  0  0
   16.8247   69.4859   -3.5685 C   0  0  0  0  0  0  0  0  0  0  0  0
  1  4  1  0
  1 24  1  0
  1  2  1  6
  1  3  2  0
 25 28  1  0
 25 24  1  0
 25 26  1  6
 25 27  2  0
  6 11  1  0
  6 12  1  0
 29 36  1  0
 29 37  1  0
  9  7  1  1
  7 13  1  0
 10  8  1  1
  8 14  1  0
  4  5  1  0
 36 28  1  1
 33 30  1  6
 30 38  1  0
 34 31  1  6
 31 39  1  0
 35 32  1  1
 32 40  1  0
 41 43  1  0
 15 19  2  0
 42 43  2  0
 16 22  2  0
 12 17  1  6
 17 19  1  0
 17 20  1  0
 18 19  1  0
 18 22  1  0
 18 23  1  0
  9 10  1  0
  9 11  1  0
 10 12  1  0
 11  5  1  6
 33 34  1  0
 33 35  1  0
 34 36  1  0
 35 37  1  0
 37 43  1  1
 20 21  2  0
 21 22  1  0
M  CHG  3   2  -1  26  -1  41  -1
M  END
>  <COMPND>  (40) 
    udp_gluA.pdb 

>  <AUTHOR>  (40) 
    GENERATED BY OPEN BABEL 3.1.1

>  <MASTER>  (40) 
        0    0    0    0    0    0    0    0   56    0   56    0

>  <minimizedAffinity>  (40) 
-7.93995

>  <CNNscore>  (40) 
0.3704121411

>  <CNNaffinity>  (40) 
4.2065272331

>  <CNN_VS>  (40) 
1.5581487417

>  <CNNaffinity_variance>  (40) 
0.1264393330

$$$$
41
     RDKit          3D

 43 45  0  0  0  0  0  0  0  0999 V2000
   22.5651   70.5798    0.4118 P   0  0  2  0  0  0  0  0  0  0  0  0
   21.8778   72.0426    0.3294 O   0  0  0  0  0  0  0  0  0  0  0  0
   21.6120   69.4253    0.3089 O   0  0  0  0  0  0  0  0  0  0  0  0
   23.4499   70.6420    1.7650 O   0  0  0  0  0  0  0  0  0  0  0  0
   24.6381   71.4118    1.7612 C   0  0  0  0  0  0  0  0  0  0  0  0
   25.3533   72.8239    3.5701 O   0  0  0  0  0  0  0  0  0  0  0  0
   23.8321   75.0212    2.2101 O   0  0  0  0  0  0  0  0  0  0  0  0
   26.4101   75.5514    1.4970 O   0  0  0  0  0  0  0  0  0  0  0  0
   24.5837   73.9522    1.6348 C   0  0  1  0  0  0  0  0  0  0  0  0
   26.0673   74.2127    1.7883 C   0  0  2  0  0  0  0  0  0  0  0  0
   24.3854   72.7177    2.5036 C   0  0  1  0  0  0  0  0  0  0  0  0
   26.3015   73.8529    3.2455 C   0  0  2  0  0  0  0  0  0  0  0  0
   23.9432   75.8211    1.6721 H   0  0  0  0  0  0  0  0  0  0  0  0
   26.2433   75.7309    0.5579 H   0  0  0  0  0  0  0  0  0  0  0  0
   28.3589   75.3308    4.4943 O   0  0  0  0  0  0  0  0  0  0  0  0
   31.3517   71.8481    4.0967 O   0  0  0  0  0  0  0  0  0  0  0  0
   27.6279   73.3566    3.4810 N   0  0  0  0  0  0  0  0  0  0  0  0
   29.8478   73.5952    4.2942 N   0  0  0  0  0  0  0  0  0  0  0  0
   28.5873   74.1803    4.1160 C   0  0  0  0  0  0  0  0  0  0  0  0
   27.9665   72.0680    3.0864 C   0  0  0  0  0  0  0  0  0  0  0  0
   29.1722   71.5241    3.2632 C   0  0  0  0  0  0  0  0  0  0  0  0
   30.2321   72.3183    3.9183 C   0  0  0  0  0  0  0  0  0  0  0  0
   30.5330   74.1501    4.7323 H   0  0  0  0  0  0  0  0  0  0  0  0
   23.6817   70.6372   -0.7555 O   0  0  0  0  0  0  0  0  0  0  0  0
   23.8362   71.6207   -2.0292 P   0  0  2  0  0  0  0  0  0  0  0  0
   25.0166   70.9260   -2.8920 O   0  0  0  0  0  0  0  0  0  0  0  0
   24.0943   73.0558   -1.6714 O   0  0  0  0  0  0  0  0  0  0  0  0
   22.4992   71.3776   -2.8986 O   0  0  0  0  0  0  0  0  0  0  0  0
   21.7269   71.9532   -5.0622 O   0  0  0  0  0  0  0  0  0  0  0  0
   18.3822   72.6905   -2.7520 O   0  0  0  0  0  0  0  0  0  0  0  0
   21.0340   73.4772   -1.8121 O   0  0  0  0  0  0  0  0  0  0  0  0
   18.5101   70.3108   -4.4167 O   0  0  0  0  0  0  0  0  0  0  0  0
   19.5924   72.0281   -3.1189 C   0  0  2  0  0  0  0  0  0  0  0  0
   20.7429   73.0348   -3.1327 C   0  0  2  0  0  0  0  0  0  0  0  0
   19.3973   71.4236   -4.5112 C   0  0  1  0  0  0  0  0  0  0  0  0
   22.0032   72.4170   -3.7401 C   0  0  1  0  0  0  0  0  0  0  0  0
   20.7205   70.9438   -5.1006 C   0  0  1  0  0  0  0  0  0  0  0  0
   18.4825   73.0827   -1.8703 H   0  0  0  0  0  0  0  0  0  0  0  0
   20.2386   73.8701   -1.4205 H   0  0  0  0  0  0  0  0  0  0  0  0
   17.6640   70.6026   -4.0427 H   0  0  0  0  0  0  0  0  0  0  0  0
   19.5350   71.3547   -7.0824 O   0  0  0  0  0  0  0  0  0  0  0  0
   21.3046   69.9223   -7.2069 O   0  0  0  0  0  0  0  0  0  0  0  0
   20.5803   70.6653   -6.5618 C   0  0  0  0  0  0  0  0  0  0  0  0
  1  4  1  0
  1 24  1  0
  1  2  1  6
  1  3  2  0
 25 28  1  0
 25 24  1  0
 25 26  1  6
 25 27  2  0
  6 11  1  0
  6 12  1  0
 29 36  1  0
 29 37  1  0
  9  7  1  1
  7 13  1  0
 10  8  1  1
  8 14  1  0
  4  5  1  0
 36 28  1  1
 33 30  1  6
 30 38  1  0
 34 31  1  1
 31 39  1  0
 35 32  1  1
 32 40  1  0
 41 43  1  0
 15 19  2  0
 42 43  2  0
 16 22  2  0
 12 17  1  6
 17 19  1  0
 17 20  1  0
 18 19  1  0
 18 22  1  0
 18 23  1  0
  9 10  1  0
  9 11  1  0
 10 12  1  0
 11  5  1  6
 33 34  1  0
 33 35  1  0
 34 36  1  0
 35 37  1  0
 37 43  1  6
 20 21  2  0
 21 22  1  0
M  CHG  3   2  -1  26  -1  41  -1
M  END
>  <COMPND>  (41) 
    udp_gluA.pdb 

>  <AUTHOR>  (41) 
    GENERATED BY OPEN BABEL 3.1.1

>  <MASTER>  (41) 
        0    0    0    0    0    0    0    0   56    0   56    0

>  <minimizedAffinity>  (41) 
-6.85761

>  <CNNscore>  (41) 
0.8052070737

>  <CNNaffinity>  (41) 
4.4446687698

>  <CNN_VS>  (41) 
3.5788786411

>  <CNNaffinity_variance>  (41) 
0.0483401045

$$$$
42
     RDKit          3D

 43 45  0  0  0  0  0  0  0  0999 V2000
   23.6367   71.5461   -2.7092 P   0  0  2  0  0  0  0  0  0  0  0  0
   23.4536   73.0430   -2.1220 O   0  0  0  0  0  0  0  0  0  0  0  0
   25.0414   71.1836   -3.0929 O   0  0  0  0  0  0  0  0  0  0  0  0
   22.5393   71.4569   -3.8948 O   0  0  0  0  0  0  0  0  0  0  0  0
   22.3496   72.5865   -4.7269 C   0  0  0  0  0  0  0  0  0  0  0  0
   21.0943   70.8778   -5.8594 O   0  0  0  0  0  0  0  0  0  0  0  0
   20.7109   72.8785   -8.0598 O   0  0  0  0  0  0  0  0  0  0  0  0
   18.3302   72.9868   -6.7345 O   0  0  0  0  0  0  0  0  0  0  0  0
   20.7581   73.0860   -6.6479 C   0  0  1  0  0  0  0  0  0  0  0  0
   19.4761   72.6023   -6.0039 C   0  0  2  0  0  0  0  0  0  0  0  0
   21.7881   72.1273   -6.0664 C   0  0  1  0  0  0  0  0  0  0  0  0
   19.6804   71.0970   -5.9862 C   0  0  2  0  0  0  0  0  0  0  0  0
   20.0594   73.4802   -8.4537 H   0  0  0  0  0  0  0  0  0  0  0  0
   18.2440   73.9533   -6.7156 H   0  0  0  0  0  0  0  0  0  0  0  0
   17.3180   69.5675   -6.2233 O   0  0  0  0  0  0  0  0  0  0  0  0
   17.1934   68.7222   -1.6941 O   0  0  0  0  0  0  0  0  0  0  0  0
   19.0094   70.4659   -4.8852 N   0  0  0  0  0  0  0  0  0  0  0  0
   17.2576   69.1488   -3.9672 N   0  0  0  0  0  0  0  0  0  0  0  0
   17.8287   69.7199   -5.1121 C   0  0  0  0  0  0  0  0  0  0  0  0
   19.5216   70.5873   -3.5991 C   0  0  0  0  0  0  0  0  0  0  0  0
   18.9661   70.0371   -2.5177 C   0  0  0  0  0  0  0  0  0  0  0  0
   17.7296   69.2422   -2.6679 C   0  0  0  0  0  0  0  0  0  0  0  0
   16.4337   68.6264   -4.0998 H   0  0  0  0  0  0  0  0  0  0  0  0
   22.9952   70.6204   -1.5498 O   0  0  0  0  0  0  0  0  0  0  0  0
   22.2244   71.0122   -0.1837 P   0  0  2  0  0  0  0  0  0  0  0  0
   21.9387   69.5753    0.5049 O   0  0  0  0  0  0  0  0  0  0  0  0
   20.9987   71.8547   -0.3881 O   0  0  0  0  0  0  0  0  0  0  0  0
   23.3560   71.6907    0.7445 O   0  0  0  0  0  0  0  0  0  0  0  0
   25.0837   71.1875    2.2844 O   0  0  0  0  0  0  0  0  0  0  0  0
   22.7131   73.7535    4.4898 O   0  0  0  0  0  0  0  0  0  0  0  0
   21.5014   71.6872    2.8173 O   0  0  0  0  0  0  0  0  0  0  0  0
   25.2241   74.6912    3.3644 O   0  0  0  0  0  0  0  0  0  0  0  0
   23.3122   73.2261    3.3062 C   0  0  2  0  0  0  0  0  0  0  0  0
   22.8885   71.7685    3.1239 C   0  0  2  0  0  0  0  0  0  0  0  0
   24.8315   73.3234    3.4615 C   0  0  1  0  0  0  0  0  0  0  0  0
   23.6864   71.1031    2.0016 C   0  0  1  0  0  0  0  0  0  0  0  0
   25.5544   72.5302    2.3766 C   0  0  1  0  0  0  0  0  0  0  0  0
   21.7472   73.7020    4.4140 H   0  0  0  0  0  0  0  0  0  0  0  0
   20.9891   72.1078    3.5252 H   0  0  0  0  0  0  0  0  0  0  0  0
   24.7709   75.2071    4.0494 H   0  0  0  0  0  0  0  0  0  0  0  0
   27.6141   73.5607    2.8203 O   0  0  0  0  0  0  0  0  0  0  0  0
   27.5548   71.2824    2.8892 O   0  0  0  0  0  0  0  0  0  0  0  0
   26.9982   72.3568    2.7193 C   0  0  0  0  0  0  0  0  0  0  0  0
  1  4  1  0
  1 24  1  0
  1  2  1  1
  1  3  2  0
 25 28  1  0
 25 24  1  0
 25 26  1  1
 25 27  2  0
  6 11  1  0
  6 12  1  0
 29 36  1  0
 29 37  1  0
  9  7  1  6
  7 13  1  0
 10  8  1  6
  8 14  1  0
  4  5  1  0
 36 28  1  6
 33 30  1  1
 30 38  1  0
 34 31  1  6
 31 39  1  0
 35 32  1  6
 32 40  1  0
 41 43  1  0
 15 19  2  0
 42 43  2  0
 16 22  2  0
 12 17  1  1
 17 19  1  0
 17 20  1  0
 18 19  1  0
 18 22  1  0
 18 23  1  0
  9 10  1  0
  9 11  1  0
 10 12  1  0
 11  5  1  1
 33 34  1  0
 33 35  1  0
 34 36  1  0
 35 37  1  0
 37 43  1  1
 20 21  2  0
 21 22  1  0
M  CHG  3   2  -1  26  -1  41  -1
M  END
>  <COMPND>  (42) 
    udp_gluA.pdb 

>  <AUTHOR>  (42) 
    GENERATED BY OPEN BABEL 3.1.1

>  <MASTER>  (42) 
        0    0    0    0    0    0    0    0   56    0   56    0

>  <minimizedAffinity>  (42) 
-8.17599

>  <CNNscore>  (42) 
0.7633123398

>  <CNNaffinity>  (42) 
4.5213818550

>  <CNN_VS>  (42) 
3.4512264729

>  <CNNaffinity_variance>  (42) 
0.1223307624

$$$$
43
     RDKit          3D

 43 45  0  0  0  0  0  0  0  0999 V2000
   23.7277   71.7233   -2.4840 P   0  0  2  0  0  0  0  0  0  0  0  0
   25.1047   71.0656   -3.0226 O   0  0  0  0  0  0  0  0  0  0  0  0
   22.5169   70.8449   -2.6034 O   0  0  0  0  0  0  0  0  0  0  0  0
   23.6457   73.1417   -3.2583 O   0  0  0  0  0  0  0  0  0  0  0  0
   22.6591   73.3093   -4.2598 C   0  0  0  0  0  0  0  0  0  0  0  0
   22.5045   71.7388   -6.0729 O   0  0  0  0  0  0  0  0  0  0  0  0
   24.0871   73.7177   -7.6762 O   0  0  0  0  0  0  0  0  0  0  0  0
   21.5392   74.1460   -8.5483 O   0  0  0  0  0  0  0  0  0  0  0  0
   23.0877   73.9518   -6.6838 C   0  0  1  0  0  0  0  0  0  0  0  0
   21.7140   73.6429   -7.2403 C   0  0  2  0  0  0  0  0  0  0  0  0
   23.2402   72.8895   -5.6038 C   0  0  1  0  0  0  0  0  0  0  0  0
   21.6870   72.1249   -7.1891 C   0  0  2  0  0  0  0  0  0  0  0  0
   24.0097   74.3843   -8.3771 H   0  0  0  0  0  0  0  0  0  0  0  0
   21.5638   75.1160   -8.5277 H   0  0  0  0  0  0  0  0  0  0  0  0
   20.9622   69.4217   -7.5689 O   0  0  0  0  0  0  0  0  0  0  0  0
   16.5732   70.2486   -6.4299 O   0  0  0  0  0  0  0  0  0  0  0  0
   20.3619   71.6065   -6.9988 N   0  0  0  0  0  0  0  0  0  0  0  0
   18.7767   69.8363   -7.0023 N   0  0  0  0  0  0  0  0  0  0  0  0
   20.1034   70.2325   -7.2165 C   0  0  0  0  0  0  0  0  0  0  0  0
   19.3360   72.4546   -6.5996 C   0  0  0  0  0  0  0  0  0  0  0  0
   18.0764   72.0623   -6.3994 C   0  0  0  0  0  0  0  0  0  0  0  0
   17.7221   70.6427   -6.6058 C   0  0  0  0  0  0  0  0  0  0  0  0
   18.5720   68.8846   -7.1495 H   0  0  0  0  0  0  0  0  0  0  0  0
   24.0993   72.1558   -0.9715 O   0  0  0  0  0  0  0  0  0  0  0  0
   24.2524   71.2768    0.3766 P   0  0  2  0  0  0  0  0  0  0  0  0
   25.8102   70.8375    0.3568 O   0  0  0  0  0  0  0  0  0  0  0  0
   23.2879   70.1307    0.4772 O   0  0  0  0  0  0  0  0  0  0  0  0
   24.1467   72.3482    1.5780 O   0  0  0  0  0  0  0  0  0  0  0  0
   25.2153   72.5014    3.6860 O   0  0  0  0  0  0  0  0  0  0  0  0
   21.4309   73.9107    4.5576 O   0  0  0  0  0  0  0  0  0  0  0  0
   21.7822   71.5833    2.8272 O   0  0  0  0  0  0  0  0  0  0  0  0
   23.6563   75.7642    4.3068 O   0  0  0  0  0  0  0  0  0  0  0  0
   22.5812   73.6830    3.7434 C   0  0  2  0  0  0  0  0  0  0  0  0
   22.8174   72.1792    3.6005 C   0  0  2  0  0  0  0  0  0  0  0  0
   23.7805   74.3480    4.4225 C   0  0  1  0  0  0  0  0  0  0  0  0
   24.1636   71.8980    2.9315 C   0  0  1  0  0  0  0  0  0  0  0  0
   25.0948   73.9192    3.7766 C   0  0  1  0  0  0  0  0  0  0  0  0
   20.6560   73.4969    4.1458 H   0  0  0  0  0  0  0  0  0  0  0  0
   20.9251   71.7580    3.2457 H   0  0  0  0  0  0  0  0  0  0  0  0
   22.8236   76.0501    4.7139 H   0  0  0  0  0  0  0  0  0  0  0  0
   25.8458   74.5979    5.8925 O   0  0  0  0  0  0  0  0  0  0  0  0
   27.4203   74.3392    4.2636 O   0  0  0  0  0  0  0  0  0  0  0  0
   26.2568   74.3005    4.6349 C   0  0  0  0  0  0  0  0  0  0  0  0
  1  4  1  0
  1 24  1  0
  1  2  1  6
  1  3  2  0
 25 28  1  0
 25 24  1  0
 25 26  1  6
 25 27  2  0
  6 11  1  0
  6 12  1  0
 29 36  1  0
 29 37  1  0
  9  7  1  6
  7 13  1  0
 10  8  1  6
  8 14  1  0
  4  5  1  0
 36 28  1  6
 33 30  1  1
 30 38  1  0
 34 31  1  6
 31 39  1  0
 35 32  1  6
 32 40  1  0
 41 43  1  0
 15 19  2  0
 42 43  2  0
 16 22  2  0
 12 17  1  1
 17 19  1  0
 17 20  1  0
 18 19  1  0
 18 22  1  0
 18 23  1  0
  9 10  1  0
  9 11  1  0
 10 12  1  0
 11  5  1  1
 33 34  1  0
 33 35  1  0
 34 36  1  0
 35 37  1  0
 37 43  1  1
 20 21  2  0
 21 22  1  0
M  CHG  3   2  -1  26  -1  41  -1
M  END
>  <COMPND>  (43) 
    udp_gluA.pdb 

>  <AUTHOR>  (43) 
    GENERATED BY OPEN BABEL 3.1.1

>  <MASTER>  (43) 
        0    0    0    0    0    0    0    0   56    0   56    0

>  <minimizedAffinity>  (43) 
-7.32856

>  <CNNscore>  (43) 
0.6257873774

>  <CNNaffinity>  (43) 
4.3067994118

>  <CNN_VS>  (43) 
2.6951406002

>  <CNNaffinity_variance>  (43) 
0.0363655016

$$$$
44
     RDKit          3D

 43 45  0  0  0  0  0  0  0  0999 V2000
   21.2944   70.4690   -0.5542 P   0  0  2  0  0  0  0  0  0  0  0  0
   21.6470   69.4612    0.6619 O   0  0  0  0  0  0  0  0  0  0  0  0
   20.6912   71.7783   -0.1373 O   0  0  0  0  0  0  0  0  0  0  0  0
   20.3975   69.5696   -1.5565 O   0  0  0  0  0  0  0  0  0  0  0  0
   19.2649   70.1617   -2.1657 C   0  0  0  0  0  0  0  0  0  0  0  0
   17.2965   68.9489   -1.5084 O   0  0  0  0  0  0  0  0  0  0  0  0
   17.0572   68.1444   -4.3871 O   0  0  0  0  0  0  0  0  0  0  0  0
   15.2271   70.1549   -4.1762 O   0  0  0  0  0  0  0  0  0  0  0  0
   17.5052   69.3795   -3.8283 C   0  0  1  0  0  0  0  0  0  0  0  0
   16.3297   70.1700   -3.2939 C   0  0  2  0  0  0  0  0  0  0  0  0
   18.2823   69.0655   -2.5571 C   0  0  1  0  0  0  0  0  0  0  0  0
   16.0400   69.4575   -1.9838 C   0  0  2  0  0  0  0  0  0  0  0  0
   16.5579   68.3195   -5.2006 H   0  0  0  0  0  0  0  0  0  0  0  0
   15.4617   70.6208   -4.9947 H   0  0  0  0  0  0  0  0  0  0  0  0
   13.9491   68.7569   -0.2192 O   0  0  0  0  0  0  0  0  0  0  0  0
   13.9977   72.9103    1.7785 O   0  0  0  0  0  0  0  0  0  0  0  0
   15.4870   70.3365   -0.9926 N   0  0  0  0  0  0  0  0  0  0  0  0
   13.9746   70.8265    0.7734 N   0  0  0  0  0  0  0  0  0  0  0  0
   14.4382   69.8864   -0.1563 C   0  0  0  0  0  0  0  0  0  0  0  0
   15.9839   71.6269   -0.8552 C   0  0  0  0  0  0  0  0  0  0  0  0
   15.5320   72.5116    0.0357 C   0  0  0  0  0  0  0  0  0  0  0  0
   14.4364   72.1212    0.9472 C   0  0  0  0  0  0  0  0  0  0  0  0
   13.2432   70.5368    1.3654 H   0  0  0  0  0  0  0  0  0  0  0  0
   22.7012   70.5957   -1.3401 O   0  0  0  0  0  0  0  0  0  0  0  0
   23.2795   71.7607   -2.3003 P   0  0  2  0  0  0  0  0  0  0  0  0
   24.5437   71.0521   -3.0214 O   0  0  0  0  0  0  0  0  0  0  0  0
   23.6114   73.0390   -1.5863 O   0  0  0  0  0  0  0  0  0  0  0  0
   22.1772   71.9130   -3.4684 O   0  0  0  0  0  0  0  0  0  0  0  0
   22.2779   71.9082   -5.8346 O   0  0  0  0  0  0  0  0  0  0  0  0
   19.4510   74.8348   -5.1193 O   0  0  0  0  0  0  0  0  0  0  0  0
   21.8657   74.6768   -3.4826 O   0  0  0  0  0  0  0  0  0  0  0  0
   18.6274   72.2070   -6.0506 O   0  0  0  0  0  0  0  0  0  0  0  0
   20.1704   73.6282   -4.8656 C   0  0  2  0  0  0  0  0  0  0  0  0
   21.6550   73.9459   -4.6851 C   0  0  2  0  0  0  0  0  0  0  0  0
   19.9672   72.6960   -6.0621 C   0  0  1  0  0  0  0  0  0  0  0  0
   22.4875   72.6637   -4.6409 C   0  0  1  0  0  0  0  0  0  0  0  0
   20.9211   71.5061   -6.0096 C   0  0  1  0  0  0  0  0  0  0  0  0
   19.5654   75.4429   -4.3720 H   0  0  0  0  0  0  0  0  0  0  0  0
   21.3402   75.4916   -3.5038 H   0  0  0  0  0  0  0  0  0  0  0  0
   18.0101   72.9545   -6.0835 H   0  0  0  0  0  0  0  0  0  0  0  0
   20.7328   71.6557   -8.3427 O   0  0  0  0  0  0  0  0  0  0  0  0
   21.1436   69.5928   -7.4625 O   0  0  0  0  0  0  0  0  0  0  0  0
   20.9497   70.7908   -7.3210 C   0  0  0  0  0  0  0  0  0  0  0  0
  1  4  1  0
  1 24  1  0
  1  2  1  1
  1  3  2  0
 25 28  1  0
 25 24  1  0
 25 26  1  6
 25 27  2  0
  6 11  1  0
  6 12  1  0
 29 36  1  0
 29 37  1  0
  9  7  1  1
  7 13  1  0
 10  8  1  6
  8 14  1  0
  4  5  1  0
 36 28  1  1
 33 30  1  6
 30 38  1  0
 34 31  1  1
 31 39  1  0
 35 32  1  1
 32 40  1  0
 41 43  1  0
 15 19  2  0
 42 43  2  0
 16 22  2  0
 12 17  1  1
 17 19  1  0
 17 20  1  0
 18 19  1  0
 18 22  1  0
 18 23  1  0
  9 10  1  0
  9 11  1  0
 10 12  1  0
 11  5  1  1
 33 34  1  0
 33 35  1  0
 34 36  1  0
 35 37  1  0
 37 43  1  6
 20 21  2  0
 21 22  1  0
M  CHG  3   2  -1  26  -1  41  -1
M  END
>  <COMPND>  (44) 
    udp_gluA.pdb 

>  <AUTHOR>  (44) 
    GENERATED BY OPEN BABEL 3.1.1

>  <MASTER>  (44) 
        0    0    0    0    0    0    0    0   56    0   56    0

>  <minimizedAffinity>  (44) 
-7.36188

>  <CNNscore>  (44) 
0.6001212001

>  <CNNaffinity>  (44) 
4.2156672478

>  <CNN_VS>  (44) 
2.5299112797

>  <CNNaffinity_variance>  (44) 
0.2656299770

$$$$
45
     RDKit          3D

 43 45  0  0  0  0  0  0  0  0999 V2000
   18.2495   70.0385   -2.3124 P   0  0  2  0  0  0  0  0  0  0  0  0
   17.8351   68.5312   -1.8940 O   0  0  0  0  0  0  0  0  0  0  0  0
   17.4130   71.1202   -1.6944 O   0  0  0  0  0  0  0  0  0  0  0  0
   18.2672   70.0017   -3.9299 O   0  0  0  0  0  0  0  0  0  0  0  0
   17.3296   69.1774   -4.5977 C   0  0  0  0  0  0  0  0  0  0  0  0
   17.2277   71.2746   -5.7678 O   0  0  0  0  0  0  0  0  0  0  0  0
   15.2299   69.9570   -7.5745 O   0  0  0  0  0  0  0  0  0  0  0  0
   17.5203   69.8654   -9.0515 O   0  0  0  0  0  0  0  0  0  0  0  0
   16.3878   69.4019   -6.9504 C   0  0  1  0  0  0  0  0  0  0  0  0
   17.6419   69.8892   -7.6447 C   0  0  2  0  0  0  0  0  0  0  0  0
   16.5237   70.0294   -5.5698 C   0  0  1  0  0  0  0  0  0  0  0  0
   17.7805   71.2980   -7.0934 C   0  0  2  0  0  0  0  0  0  0  0  0
   15.1222   69.5712   -8.4584 H   0  0  0  0  0  0  0  0  0  0  0  0
   17.4352   68.9469   -9.3532 H   0  0  0  0  0  0  0  0  0  0  0  0
   20.0042   69.5633   -7.2424 O   0  0  0  0  0  0  0  0  0  0  0  0
   22.9854   73.0512   -6.8051 O   0  0  0  0  0  0  0  0  0  0  0  0
   19.1488   71.7261   -7.0212 N   0  0  0  0  0  0  0  0  0  0  0  0
   21.4868   71.3020   -7.0234 N   0  0  0  0  0  0  0  0  0  0  0  0
   20.1918   70.7737   -7.1061 C   0  0  0  0  0  0  0  0  0  0  0  0
   19.4465   73.0750   -6.8699 C   0  0  0  0  0  0  0  0  0  0  0  0
   20.6859   73.5635   -6.7927 C   0  0  0  0  0  0  0  0  0  0  0  0
   21.8327   72.6350   -6.8722 C   0  0  0  0  0  0  0  0  0  0  0  0
   22.2295   70.6579   -7.0781 H   0  0  0  0  0  0  0  0  0  0  0  0
   19.8195   70.1018   -1.9332 O   0  0  0  0  0  0  0  0  0  0  0  0
   20.6067   70.9586   -0.8108 P   0  0  2  0  0  0  0  0  0  0  0  0
   21.2137   69.8193    0.1659 O   0  0  0  0  0  0  0  0  0  0  0  0
   19.7606   71.9842   -0.1134 O   0  0  0  0  0  0  0  0  0  0  0  0
   21.8899   71.5608   -1.5809 O   0  0  0  0  0  0  0  0  0  0  0  0
   21.1720   72.8632   -3.4241 O   0  0  0  0  0  0  0  0  0  0  0  0
   25.2808   73.0502   -3.8121 O   0  0  0  0  0  0  0  0  0  0  0  0
   23.9725   70.5338   -3.1119 O   0  0  0  0  0  0  0  0  0  0  0  0
   23.8070   75.3343   -2.7816 O   0  0  0  0  0  0  0  0  0  0  0  0
   24.0410   72.9589   -3.1104 C   0  0  2  0  0  0  0  0  0  0  0  0
   23.2924   71.7023   -3.5554 C   0  0  2  0  0  0  0  0  0  0  0  0
   23.2209   74.2097   -3.4346 C   0  0  1  0  0  0  0  0  0  0  0  0
   21.8671   71.6895   -3.0013 C   0  0  1  0  0  0  0  0  0  0  0  0
   21.7775   74.0679   -2.9602 C   0  0  1  0  0  0  0  0  0  0  0  0
   25.8190   72.2658   -3.6214 H   0  0  0  0  0  0  0  0  0  0  0  0
   24.8778   70.5355   -3.4596 H   0  0  0  0  0  0  0  0  0  0  0  0
   24.7261   75.4356   -3.0746 H   0  0  0  0  0  0  0  0  0  0  0  0
   19.6041   74.8666   -3.3345 O   0  0  0  0  0  0  0  0  0  0  0  0
   21.3259   76.1052   -4.1714 O   0  0  0  0  0  0  0  0  0  0  0  0
   20.9150   75.1298   -3.5609 C   0  0  0  0  0  0  0  0  0  0  0  0
  1  4  1  0
  1 24  1  0
  1  2  1  1
  1  3  2  0
 25 28  1  0
 25 24  1  0
 25 26  1  1
 25 27  2  0
  6 11  1  0
  6 12  1  0
 29 36  1  0
 29 37  1  0
  9  7  1  6
  7 13  1  0
 10  8  1  6
  8 14  1  0
  4  5  1  0
 36 28  1  1
 33 30  1  6
 30 38  1  0
 34 31  1  1
 31 39  1  0
 35 32  1  1
 32 40  1  0
 41 43  1  0
 15 19  2  0
 42 43  2  0
 16 22  2  0
 12 17  1  1
 17 19  1  0
 17 20  1  0
 18 19  1  0
 18 22  1  0
 18 23  1  0
  9 10  1  0
  9 11  1  0
 10 12  1  0
 11  5  1  1
 33 34  1  0
 33 35  1  0
 34 36  1  0
 35 37  1  0
 37 43  1  6
 20 21  2  0
 21 22  1  0
M  CHG  3   2  -1  26  -1  41  -1
M  END
>  <COMPND>  (45) 
    udp_gluA.pdb 

>  <AUTHOR>  (45) 
    GENERATED BY OPEN BABEL 3.1.1

>  <MASTER>  (45) 
        0    0    0    0    0    0    0    0   56    0   56    0

>  <minimizedAffinity>  (45) 
-7.20887

>  <CNNscore>  (45) 
0.5520696640

>  <CNNaffinity>  (45) 
4.4091000557

>  <CNN_VS>  (45) 
2.4341304302

>  <CNNaffinity_variance>  (45) 
0.5027744174

$$$$
46
     RDKit          3D

 43 45  0  0  0  0  0  0  0  0999 V2000
   17.4412   69.9021   -2.8619 P   0  0  2  0  0  0  0  0  0  0  0  0
   18.5817   69.0642   -2.0770 O   0  0  0  0  0  0  0  0  0  0  0  0
   16.1356   70.0309   -2.1334 O   0  0  0  0  0  0  0  0  0  0  0  0
   17.3683   69.1928   -4.3143 O   0  0  0  0  0  0  0  0  0  0  0  0
   16.1113   69.1000   -4.9591 C   0  0  0  0  0  0  0  0  0  0  0  0
   15.1917   70.2520   -6.8578 O   0  0  0  0  0  0  0  0  0  0  0  0
   17.9028   69.9699   -8.1074 O   0  0  0  0  0  0  0  0  0  0  0  0
   17.9157   72.5527   -7.2326 O   0  0  0  0  0  0  0  0  0  0  0  0
   17.5569   70.1985   -6.7412 C   0  0  1  0  0  0  0  0  0  0  0  0
   17.0957   71.6278   -6.5494 C   0  0  2  0  0  0  0  0  0  0  0  0
   16.2889   69.4115   -6.4396 C   0  0  1  0  0  0  0  0  0  0  0  0
   15.6817   71.5799   -7.1026 C   0  0  2  0  0  0  0  0  0  0  0  0
   18.7103   70.4627   -8.3237 H   0  0  0  0  0  0  0  0  0  0  0  0
   18.8047   72.5459   -6.8432 H   0  0  0  0  0  0  0  0  0  0  0  0
   13.5137   72.8668   -8.3755 O   0  0  0  0  0  0  0  0  0  0  0  0
   12.4067   75.1856   -4.5491 O   0  0  0  0  0  0  0  0  0  0  0  0
   14.8105   72.5244   -6.4625 N   0  0  0  0  0  0  0  0  0  0  0  0
   12.9650   74.0212   -6.4688 N   0  0  0  0  0  0  0  0  0  0  0  0
   13.7509   73.1140   -7.1916 C   0  0  0  0  0  0  0  0  0  0  0  0
   15.0085   72.8567   -5.1278 C   0  0  0  0  0  0  0  0  0  0  0  0
   14.2510   73.7231   -4.4523 C   0  0  0  0  0  0  0  0  0  0  0  0
   13.1232   74.3841   -5.1411 C   0  0  0  0  0  0  0  0  0  0  0  0
   12.2224   74.4461   -6.9559 H   0  0  0  0  0  0  0  0  0  0  0  0
   18.1763   71.3062   -3.1796 O   0  0  0  0  0  0  0  0  0  0  0  0
   19.7020   71.6336   -3.6025 P   0  0  2  0  0  0  0  0  0  0  0  0
   19.6648   73.2200   -3.9224 O   0  0  0  0  0  0  0  0  0  0  0  0
   20.2241   70.7879   -4.7278 O   0  0  0  0  0  0  0  0  0  0  0  0
   20.5416   71.5145   -2.2302 O   0  0  0  0  0  0  0  0  0  0  0  0
   22.8301   71.2907   -2.7978 O   0  0  0  0  0  0  0  0  0  0  0  0
   22.9718   71.1699    1.3294 O   0  0  0  0  0  0  0  0  0  0  0  0
   20.8851   69.7313   -0.1234 O   0  0  0  0  0  0  0  0  0  0  0  0
   23.7873   73.5728   -0.0890 O   0  0  0  0  0  0  0  0  0  0  0  0
   22.4658   71.5633    0.0538 C   0  0  2  0  0  0  0  0  0  0  0  0
   22.0288   70.3241   -0.7278 C   0  0  2  0  0  0  0  0  0  0  0  0
   23.5827   72.2967   -0.6923 C   0  0  1  0  0  0  0  0  0  0  0  0
   21.6976   70.6804   -2.1777 C   0  0  1  0  0  0  0  0  0  0  0  0
   23.2284   72.5033   -2.1622 C   0  0  1  0  0  0  0  0  0  0  0  0
   22.2793   70.7017    1.8218 H   0  0  0  0  0  0  0  0  0  0  0  0
   21.0881   69.5030    0.7969 H   0  0  0  0  0  0  0  0  0  0  0  0
   24.0133   73.4555    0.8470 H   0  0  0  0  0  0  0  0  0  0  0  0
   24.7342   74.2146   -2.7148 O   0  0  0  0  0  0  0  0  0  0  0  0
   25.0664   72.1813   -3.6917 O   0  0  0  0  0  0  0  0  0  0  0  0
   24.4329   72.9128   -2.9456 C   0  0  0  0  0  0  0  0  0  0  0  0
  1  4  1  0
  1 24  1  0
  1  2  1  1
  1  3  2  0
 25 28  1  0
 25 24  1  0
 25 26  1  6
 25 27  2  0
  6 11  1  0
  6 12  1  0
 29 36  1  0
 29 37  1  0
  9  7  1  6
  7 13  1  0
 10  8  1  6
  8 14  1  0
  4  5  1  0
 36 28  1  1
 33 30  1  1
 30 38  1  0
 34 31  1  1
 31 39  1  0
 35 32  1  1
 32 40  1  0
 41 43  1  0
 15 19  2  0
 42 43  2  0
 16 22  2  0
 12 17  1  1
 17 19  1  0
 17 20  1  0
 18 19  1  0
 18 22  1  0
 18 23  1  0
  9 10  1  0
  9 11  1  0
 10 12  1  0
 11  5  1  1
 33 34  1  0
 33 35  1  0
 34 36  1  0
 35 37  1  0
 37 43  1  6
 20 21  2  0
 21 22  1  0
M  CHG  3   2  -1  26  -1  41  -1
M  END
>  <COMPND>  (46) 
    udp_gluA.pdb 

>  <AUTHOR>  (46) 
    GENERATED BY OPEN BABEL 3.1.1

>  <MASTER>  (46) 
        0    0    0    0    0    0    0    0   56    0   56    0

>  <minimizedAffinity>  (46) 
-6.68692

>  <CNNscore>  (46) 
0.5479644537

>  <CNNaffinity>  (46) 
4.2929558754

>  <CNN_VS>  (46) 
2.3523871899

>  <CNNaffinity_variance>  (46) 
0.0403072909

$$$$
47
     RDKit          3D

 43 45  0  0  0  0  0  0  0  0999 V2000
   23.4590   73.5365   -4.3081 P   0  0  2  0  0  0  0  0  0  0  0  0
   24.3765   74.6477   -3.5716 O   0  0  0  0  0  0  0  0  0  0  0  0
   24.1597   72.7371   -5.3672 O   0  0  0  0  0  0  0  0  0  0  0  0
   22.1608   74.3681   -4.7991 O   0  0  0  0  0  0  0  0  0  0  0  0
   20.9189   73.6939   -4.8856 C   0  0  0  0  0  0  0  0  0  0  0  0
   20.7908   71.3629   -5.4581 O   0  0  0  0  0  0  0  0  0  0  0  0
   20.3193   72.2720   -8.2764 O   0  0  0  0  0  0  0  0  0  0  0  0
   17.8064   71.6423   -7.4252 O   0  0  0  0  0  0  0  0  0  0  0  0
   19.8782   72.8589   -7.0518 C   0  0  1  0  0  0  0  0  0  0  0  0
   18.7517   72.0422   -6.4551 C   0  0  2  0  0  0  0  0  0  0  0  0
   20.9833   72.6792   -6.0199 C   0  0  1  0  0  0  0  0  0  0  0  0
   19.5004   70.8675   -5.8491 C   0  0  2  0  0  0  0  0  0  0  0  0
   19.6296   72.3745   -8.9513 H   0  0  0  0  0  0  0  0  0  0  0  0
   17.3566   72.4255   -7.7805 H   0  0  0  0  0  0  0  0  0  0  0  0
   17.2954   69.1057   -5.9520 O   0  0  0  0  0  0  0  0  0  0  0  0
   17.0334   68.8738   -1.3561 O   0  0  0  0  0  0  0  0  0  0  0  0
   18.8367   70.3313   -4.6946 N   0  0  0  0  0  0  0  0  0  0  0  0
   17.1664   68.9927   -3.6629 N   0  0  0  0  0  0  0  0  0  0  0  0
   17.7381   69.4543   -4.8558 C   0  0  0  0  0  0  0  0  0  0  0  0
   19.2754   70.6732   -3.4212 C   0  0  0  0  0  0  0  0  0  0  0  0
   18.7204   70.2250   -2.2934 C   0  0  0  0  0  0  0  0  0  0  0  0
   17.5670   69.3050   -2.3738 C   0  0  0  0  0  0  0  0  0  0  0  0
   16.3987   68.3824   -3.7497 H   0  0  0  0  0  0  0  0  0  0  0  0
   22.8859   72.6635   -3.0743 O   0  0  0  0  0  0  0  0  0  0  0  0
   23.4709   71.3443   -2.3454 P   0  0  2  0  0  0  0  0  0  0  0  0
   24.9852   71.2508   -2.9097 O   0  0  0  0  0  0  0  0  0  0  0  0
   22.6517   70.1054   -2.5645 O   0  0  0  0  0  0  0  0  0  0  0  0
   23.6383   71.7714   -0.7988 O   0  0  0  0  0  0  0  0  0  0  0  0
   25.0781   71.0538    0.9393 O   0  0  0  0  0  0  0  0  0  0  0  0
   21.5393   71.6706    2.9799 O   0  0  0  0  0  0  0  0  0  0  0  0
   21.5325   70.3737    0.3623 O   0  0  0  0  0  0  0  0  0  0  0  0
   23.7077   73.5937    3.2050 O   0  0  0  0  0  0  0  0  0  0  0  0
   22.5169   71.9047    1.9663 C   0  0  2  0  0  0  0  0  0  0  0  0
   22.7008   70.6378    1.1304 C   0  0  2  0  0  0  0  0  0  0  0  0
   23.8303   72.2835    2.6545 C   0  0  1  0  0  0  0  0  0  0  0  0
   23.8969   70.7736    0.1871 C   0  0  1  0  0  0  0  0  0  0  0  0
   24.9971   72.2748    1.6712 C   0  0  1  0  0  0  0  0  0  0  0  0
   20.6959   71.4282    2.5662 H   0  0  0  0  0  0  0  0  0  0  0  0
   20.7696   70.2866    0.9544 H   0  0  0  0  0  0  0  0  0  0  0  0
   22.9683   73.6129    3.8325 H   0  0  0  0  0  0  0  0  0  0  0  0
   26.5135   73.5473    2.9293 O   0  0  0  0  0  0  0  0  0  0  0  0
   27.0778   71.3797    2.5026 O   0  0  0  0  0  0  0  0  0  0  0  0
   26.3025   72.3182    2.3968 C   0  0  0  0  0  0  0  0  0  0  0  0
  1  4  1  0
  1 24  1  0
  1  2  1  1
  1  3  2  0
 25 28  1  0
 25 24  1  0
 25 26  1  6
 25 27  2  0
  6 11  1  0
  6 12  1  0
 29 36  1  0
 29 37  1  0
  9  7  1  6
  7 13  1  0
 10  8  1  6
  8 14  1  0
  4  5  1  0
 36 28  1  6
 33 30  1  1
 30 38  1  0
 34 31  1  6
 31 39  1  0
 35 32  1  6
 32 40  1  0
 41 43  1  0
 15 19  2  0
 42 43  2  0
 16 22  2  0
 12 17  1  1
 17 19  1  0
 17 20  1  0
 18 19  1  0
 18 22  1  0
 18 23  1  0
  9 10  1  0
  9 11  1  0
 10 12  1  0
 11  5  1  1
 33 34  1  0
 33 35  1  0
 34 36  1  0
 35 37  1  0
 37 43  1  1
 20 21  2  0
 21 22  1  0
M  CHG  3   2  -1  26  -1  41  -1
M  END
>  <COMPND>  (47) 
    udp_gluA.pdb 

>  <AUTHOR>  (47) 
    GENERATED BY OPEN BABEL 3.1.1

>  <MASTER>  (47) 
        0    0    0    0    0    0    0    0   56    0   56    0

>  <minimizedAffinity>  (47) 
-7.95418

>  <CNNscore>  (47) 
0.5394123197

>  <CNNaffinity>  (47) 
4.2514638901

>  <CNN_VS>  (47) 
2.2932920456

>  <CNNaffinity_variance>  (47) 
0.1971749961

$$$$
48
     RDKit          3D

 43 45  0  0  0  0  0  0  0  0999 V2000
   21.3307   70.6707   -1.5207 P   0  0  2  0  0  0  0  0  0  0  0  0
   22.0945   70.0341   -2.7975 O   0  0  0  0  0  0  0  0  0  0  0  0
   21.0722   72.1463   -1.6081 O   0  0  0  0  0  0  0  0  0  0  0  0
   22.2169   70.1863   -0.2566 O   0  0  0  0  0  0  0  0  0  0  0  0
   22.9392   71.1594    0.4754 C   0  0  0  0  0  0  0  0  0  0  0  0
   23.3189   71.1740    2.8488 O   0  0  0  0  0  0  0  0  0  0  0  0
   20.6987   72.6150    3.0715 O   0  0  0  0  0  0  0  0  0  0  0  0
   22.5128   74.6359    3.3176 O   0  0  0  0  0  0  0  0  0  0  0  0
   21.7033   72.7174    2.0622 C   0  0  1  0  0  0  0  0  0  0  0  0
   22.8953   73.4903    2.5857 C   0  0  2  0  0  0  0  0  0  0  0  0
   22.2934   71.3308    1.8443 C   0  0  1  0  0  0  0  0  0  0  0  0
   23.5911   72.4509    3.4479 C   0  0  2  0  0  0  0  0  0  0  0  0
   20.3070   73.4889    3.2282 H   0  0  0  0  0  0  0  0  0  0  0  0
   22.0747   75.2671    2.7246 H   0  0  0  0  0  0  0  0  0  0  0  0
   24.9004   74.1072    5.3239 O   0  0  0  0  0  0  0  0  0  0  0  0
   29.0477   73.1291    3.5668 O   0  0  0  0  0  0  0  0  0  0  0  0
   25.0122   72.6472    3.5033 N   0  0  0  0  0  0  0  0  0  0  0  0
   26.9646   73.6192    4.4463 N   0  0  0  0  0  0  0  0  0  0  0  0
   25.5691   73.5005    4.4850 C   0  0  0  0  0  0  0  0  0  0  0  0
   25.8380   71.9976    2.5939 C   0  0  0  0  0  0  0  0  0  0  0  0
   27.1666   72.1206    2.5696 C   0  0  0  0  0  0  0  0  0  0  0  0
   27.8278   72.9941    3.5611 C   0  0  0  0  0  0  0  0  0  0  0  0
   27.3752   74.2096    5.1188 H   0  0  0  0  0  0  0  0  0  0  0  0
   20.0006   69.7599   -1.4024 O   0  0  0  0  0  0  0  0  0  0  0  0
   18.5866   69.8399   -2.1821 P   0  0  2  0  0  0  0  0  0  0  0  0
   18.0834   71.3488   -1.8817 O   0  0  0  0  0  0  0  0  0  0  0  0
   17.6066   68.7718   -1.7912 O   0  0  0  0  0  0  0  0  0  0  0  0
   18.9815   69.8462   -3.7462 O   0  0  0  0  0  0  0  0  0  0  0  0
   19.8519   71.7188   -4.9059 O   0  0  0  0  0  0  0  0  0  0  0  0
   18.1704   69.5323   -7.9816 O   0  0  0  0  0  0  0  0  0  0  0  0
   16.7708   69.8229   -5.4339 O   0  0  0  0  0  0  0  0  0  0  0  0
   21.0543   69.5574   -7.6161 O   0  0  0  0  0  0  0  0  0  0  0  0
   18.8217   69.7281   -6.7265 C   0  0  2  0  0  0  0  0  0  0  0  0
   17.9266   70.5627   -5.8101 C   0  0  2  0  0  0  0  0  0  0  0  0
   20.1423   70.4560   -6.9874 C   0  0  1  0  0  0  0  0  0  0  0  0
   18.6792   70.9865   -4.5481 C   0  0  1  0  0  0  0  0  0  0  0  0
   20.7683   70.9571   -5.6890 C   0  0  1  0  0  0  0  0  0  0  0  0
   17.3285   69.0713   -7.8408 H   0  0  0  0  0  0  0  0  0  0  0  0
   16.2885   69.5505   -6.2299 H   0  0  0  0  0  0  0  0  0  0  0  0
   20.6679   69.2310   -8.4438 H   0  0  0  0  0  0  0  0  0  0  0  0
   21.8349   72.3233   -7.2693 O   0  0  0  0  0  0  0  0  0  0  0  0
   22.6731   72.3358   -5.1488 O   0  0  0  0  0  0  0  0  0  0  0  0
   21.8625   71.9347   -5.9704 C   0  0  0  0  0  0  0  0  0  0  0  0
  1  4  1  0
  1 24  1  0
  1  2  1  6
  1  3  2  0
 25 28  1  0
 25 24  1  0
 25 26  1  1
 25 27  2  0
  6 11  1  0
  6 12  1  0
 29 36  1  0
 29 37  1  0
  9  7  1  1
  7 13  1  0
 10  8  1  1
  8 14  1  0
  4  5  1  0
 36 28  1  6
 33 30  1  6
 30 38  1  0
 34 31  1  1
 31 39  1  0
 35 32  1  1
 32 40  1  0
 41 43  1  0
 15 19  2  0
 42 43  2  0
 16 22  2  0
 12 17  1  6
 17 19  1  0
 17 20  1  0
 18 19  1  0
 18 22  1  0
 18 23  1  0
  9 10  1  0
  9 11  1  0
 10 12  1  0
 11  5  1  6
 33 34  1  0
 33 35  1  0
 34 36  1  0
 35 37  1  0
 37 43  1  6
 20 21  2  0
 21 22  1  0
M  CHG  3   2  -1  26  -1  41  -1
M  END
>  <COMPND>  (48) 
    udp_gluA.pdb 

>  <AUTHOR>  (48) 
    GENERATED BY OPEN BABEL 3.1.1

>  <MASTER>  (48) 
        0    0    0    0    0    0    0    0   56    0   56    0

>  <minimizedAffinity>  (48) 
-7.06669

>  <CNNscore>  (48) 
0.5354229212

>  <CNNaffinity>  (48) 
4.2451462746

>  <CNN_VS>  (48) 
2.2729485035

>  <CNNaffinity_variance>  (48) 
0.0178059116

$$$$
49
     RDKit          3D

 43 45  0  0  0  0  0  0  0  0999 V2000
   23.7040   72.5042   -4.0504 P   0  0  2  0  0  0  0  0  0  0  0  0
   23.8561   72.8131   -5.6316 O   0  0  0  0  0  0  0  0  0  0  0  0
   24.9215   71.9157   -3.3998 O   0  0  0  0  0  0  0  0  0  0  0  0
   22.3570   71.6128   -3.9565 O   0  0  0  0  0  0  0  0  0  0  0  0
   21.1366   72.1840   -4.3911 C   0  0  0  0  0  0  0  0  0  0  0  0
   19.8261   70.5101   -5.5129 O   0  0  0  0  0  0  0  0  0  0  0  0
   20.2320   72.1283   -8.0045 O   0  0  0  0  0  0  0  0  0  0  0  0
   17.7053   72.8216   -7.2488 O   0  0  0  0  0  0  0  0  0  0  0  0
   20.0509   72.5707   -6.6592 C   0  0  1  0  0  0  0  0  0  0  0  0
   18.6047   72.4045   -6.2430 C   0  0  2  0  0  0  0  0  0  0  0  0
   20.7619   71.5860   -5.7411 C   0  0  1  0  0  0  0  0  0  0  0  0
   18.5249   70.9123   -5.9693 C   0  0  2  0  0  0  0  0  0  0  0  0
   19.7863   72.7420   -8.6099 H   0  0  0  0  0  0  0  0  0  0  0  0
   17.7945   73.7783   -7.3856 H   0  0  0  0  0  0  0  0  0  0  0  0
   16.9693   68.5551   -5.9434 O   0  0  0  0  0  0  0  0  0  0  0  0
   14.8390   69.7860   -2.0459 O   0  0  0  0  0  0  0  0  0  0  0  0
   17.5561   70.5914   -4.9596 N   0  0  0  0  0  0  0  0  0  0  0  0
   15.9090   69.1709   -4.0028 N   0  0  0  0  0  0  0  0  0  0  0  0
   16.8275   69.3811   -5.0398 C   0  0  0  0  0  0  0  0  0  0  0  0
   17.3371   71.4690   -3.9048 C   0  0  0  0  0  0  0  0  0  0  0  0
   16.4583   71.2548   -2.9237 C   0  0  0  0  0  0  0  0  0  0  0  0
   15.6556   70.0143   -2.9332 C   0  0  0  0  0  0  0  0  0  0  0  0
   15.3884   68.3360   -4.0381 H   0  0  0  0  0  0  0  0  0  0  0  0
   23.2396   73.9293   -3.4452 O   0  0  0  0  0  0  0  0  0  0  0  0
   23.8088   74.7903   -2.2009 P   0  0  2  0  0  0  0  0  0  0  0  0
   22.4723   75.4388   -1.5578 O   0  0  0  0  0  0  0  0  0  0  0  0
   24.8631   75.7913   -2.5757 O   0  0  0  0  0  0  0  0  0  0  0  0
   24.2851   73.6877   -1.1240 O   0  0  0  0  0  0  0  0  0  0  0  0
   22.5838   72.5589    0.0763 O   0  0  0  0  0  0  0  0  0  0  0  0
   25.9542   71.5421    2.2383 O   0  0  0  0  0  0  0  0  0  0  0  0
   25.5882   74.2713    1.2629 O   0  0  0  0  0  0  0  0  0  0  0  0
   24.7263   69.6042    0.4529 O   0  0  0  0  0  0  0  0  0  0  0  0
   25.2099   71.8828    1.0688 C   0  0  2  0  0  0  0  0  0  0  0  0
   24.5820   73.2654    1.2465 C   0  0  2  0  0  0  0  0  0  0  0  0
   24.1213   70.8246    0.8761 C   0  0  1  0  0  0  0  0  0  0  0  0
   23.5946   73.5669    0.1183 C   0  0  1  0  0  0  0  0  0  0  0  0
   23.1051   71.2562   -0.1772 C   0  0  1  0  0  0  0  0  0  0  0  0
   26.6521   72.2008    2.3810 H   0  0  0  0  0  0  0  0  0  0  0  0
   26.2184   74.0861    1.9763 H   0  0  0  0  0  0  0  0  0  0  0  0
   25.3755   69.3186    1.1146 H   0  0  0  0  0  0  0  0  0  0  0  0
   20.9868   70.7768   -1.0630 O   0  0  0  0  0  0  0  0  0  0  0  0
   21.7196   69.4625    0.6502 O   0  0  0  0  0  0  0  0  0  0  0  0
   21.8876   70.3917   -0.1253 C   0  0  0  0  0  0  0  0  0  0  0  0
  1  4  1  0
  1 24  1  0
  1  2  1  6
  1  3  2  0
 25 28  1  0
 25 24  1  0
 25 26  1  1
 25 27  2  0
  6 11  1  0
  6 12  1  0
 29 36  1  0
 29 37  1  0
  9  7  1  6
  7 13  1  0
 10  8  1  6
  8 14  1  0
  4  5  1  0
 36 28  1  6
 33 30  1  1
 30 38  1  0
 34 31  1  6
 31 39  1  0
 35 32  1  6
 32 40  1  0
 41 43  1  0
 15 19  2  0
 42 43  2  0
 16 22  2  0
 12 17  1  1
 17 19  1  0
 17 20  1  0
 18 19  1  0
 18 22  1  0
 18 23  1  0
  9 10  1  0
  9 11  1  0
 10 12  1  0
 11  5  1  1
 33 34  1  0
 33 35  1  0
 34 36  1  0
 35 37  1  0
 37 43  1  1
 20 21  2  0
 21 22  1  0
M  CHG  3   2  -1  26  -1  41  -1
M  END
>  <COMPND>  (49) 
    udp_gluA.pdb 

>  <AUTHOR>  (49) 
    GENERATED BY OPEN BABEL 3.1.1

>  <MASTER>  (49) 
        0    0    0    0    0    0    0    0   56    0   56    0

>  <minimizedAffinity>  (49) 
-7.35353

>  <CNNscore>  (49) 
0.5308468342

>  <CNNaffinity>  (49) 
4.3147568703

>  <CNN_VS>  (49) 
2.2904751301

>  <CNNaffinity_variance>  (49) 
0.2363124192

$$$$
50
     RDKit          3D

 43 45  0  0  0  0  0  0  0  0999 V2000
   21.2982   72.5999   -3.7770 P   0  0  2  0  0  0  0  0  0  0  0  0
   21.7625   71.0562   -3.6348 O   0  0  0  0  0  0  0  0  0  0  0  0
   22.4120   73.5772   -4.0141 O   0  0  0  0  0  0  0  0  0  0  0  0
   20.4048   72.8604   -2.4535 O   0  0  0  0  0  0  0  0  0  0  0  0
   20.4073   74.1549   -1.8801 C   0  0  0  0  0  0  0  0  0  0  0  0
   20.6909   72.8350    0.1087 O   0  0  0  0  0  0  0  0  0  0  0  0
   19.8736   75.2872    1.6287 O   0  0  0  0  0  0  0  0  0  0  0  0
   22.5869   75.2939    1.9012 O   0  0  0  0  0  0  0  0  0  0  0  0
   20.6502   75.1807    0.4353 C   0  0  1  0  0  0  0  0  0  0  0  0
   22.0393   74.6719    0.7576 C   0  0  2  0  0  0  0  0  0  0  0  0
   20.0786   74.0411   -0.3970 C   0  0  1  0  0  0  0  0  0  0  0  0
   21.7918   73.1870    0.9616 C   0  0  2  0  0  0  0  0  0  0  0  0
   20.2200   76.0091    2.1769 H   0  0  0  0  0  0  0  0  0  0  0  0
   22.7260   76.2373    1.7207 H   0  0  0  0  0  0  0  0  0  0  0  0
   23.1171   71.4279    2.7296 O   0  0  0  0  0  0  0  0  0  0  0  0
   26.1509   70.1711   -0.5047 O   0  0  0  0  0  0  0  0  0  0  0  0
   22.9306   72.3879    0.6077 N   0  0  0  0  0  0  0  0  0  0  0  0
   24.6274   70.8044    1.1173 N   0  0  0  0  0  0  0  0  0  0  0  0
   23.5224   71.5367    1.5708 C   0  0  0  0  0  0  0  0  0  0  0  0
   23.4487   72.4506   -0.6801 C   0  0  0  0  0  0  0  0  0  0  0  0
   24.5026   71.7464   -1.0976 C   0  0  0  0  0  0  0  0  0  0  0  0
   25.1794   70.8336   -0.1531 C   0  0  0  0  0  0  0  0  0  0  0  0
   25.0575   70.2063    1.7705 H   0  0  0  0  0  0  0  0  0  0  0  0
   20.1933   72.5394   -4.9553 O   0  0  0  0  0  0  0  0  0  0  0  0
   20.3574   72.4222   -6.5593 P   0  0  2  0  0  0  0  0  0  0  0  0
   21.4643   71.2540   -6.7335 O   0  0  0  0  0  0  0  0  0  0  0  0
   20.7097   73.7141   -7.2383 O   0  0  0  0  0  0  0  0  0  0  0  0
   18.9782   71.7549   -7.0642 O   0  0  0  0  0  0  0  0  0  0  0  0
   18.6639   69.8526   -5.6888 O   0  0  0  0  0  0  0  0  0  0  0  0
   15.2103   69.8306   -7.9560 O   0  0  0  0  0  0  0  0  0  0  0  0
   17.7907   70.4169   -9.1939 O   0  0  0  0  0  0  0  0  0  0  0  0
   15.1343   70.7216   -5.1899 O   0  0  0  0  0  0  0  0  0  0  0  0
   16.3143   70.4196   -7.2687 C   0  0  2  0  0  0  0  0  0  0  0  0
   17.6235   69.9124   -7.8740 C   0  0  2  0  0  0  0  0  0  0  0  0
   16.2202   70.0214   -5.7941 C   0  0  1  0  0  0  0  0  0  0  0  0
   18.8207   70.3378   -7.0228 C   0  0  1  0  0  0  0  0  0  0  0  0
   17.5020   70.3659   -5.0412 C   0  0  1  0  0  0  0  0  0  0  0  0
   15.2491   70.0699   -8.8954 H   0  0  0  0  0  0  0  0  0  0  0  0
   17.0344   70.1509   -9.7395 H   0  0  0  0  0  0  0  0  0  0  0  0
   14.3124   70.5111   -5.6599 H   0  0  0  0  0  0  0  0  0  0  0  0
   18.6479   70.0388   -3.0209 O   0  0  0  0  0  0  0  0  0  0  0  0
   16.6761   68.9258   -3.2904 O   0  0  0  0  0  0  0  0  0  0  0  0
   17.5334   69.6889   -3.7097 C   0  0  0  0  0  0  0  0  0  0  0  0
  1  4  1  0
  1 24  1  0
  1  2  1  1
  1  3  2  0
 25 28  1  0
 25 24  1  0
 25 26  1  1
 25 27  2  0
  6 11  1  0
  6 12  1  0
 29 36  1  0
 29 37  1  0
  9  7  1  1
  7 13  1  0
 10  8  1  1
  8 14  1  0
  4  5  1  0
 36 28  1  1
 33 30  1  6
 30 38  1  0
 34 31  1  6
 31 39  1  0
 35 32  1  1
 32 40  1  0
 41 43  1  0
 15 19  2  0
 42 43  2  0
 16 22  2  0
 12 17  1  6
 17 19  1  0
 17 20  1  0
 18 19  1  0
 18 22  1  0
 18 23  1  0
  9 10  1  0
  9 11  1  0
 10 12  1  0
 11  5  1  6
 33 34  1  0
 33 35  1  0
 34 36  1  0
 35 37  1  0
 37 43  1  1
 20 21  2  0
 21 22  1  0
M  CHG  3   2  -1  26  -1  41  -1
M  END
>  <COMPND>  (50) 
    udp_gluA.pdb 

>  <AUTHOR>  (50) 
    GENERATED BY OPEN BABEL 3.1.1

>  <MASTER>  (50) 
        0    0    0    0    0    0    0    0   56    0   56    0

>  <minimizedAffinity>  (50) 
-6.85110

>  <CNNscore>  (50) 
0.5239613056

>  <CNNaffinity>  (50) 
4.4268426895

>  <CNN_VS>  (50) 
2.3194942474

>  <CNNaffinity_variance>  (50) 
0.1823586076

$$$$
51
     RDKit          3D

 43 45  0  0  0  0  0  0  0  0999 V2000
   22.2477   71.2214   -2.2686 P   0  0  2  0  0  0  0  0  0  0  0  0
   21.0331   70.2743   -1.7720 O   0  0  0  0  0  0  0  0  0  0  0  0
   23.4520   70.4893   -2.7839 O   0  0  0  0  0  0  0  0  0  0  0  0
   22.5092   72.2081   -1.0133 O   0  0  0  0  0  0  0  0  0  0  0  0
   23.4988   71.8497   -0.0663 C   0  0  0  0  0  0  0  0  0  0  0  0
   23.8372   71.0669    2.1810 O   0  0  0  0  0  0  0  0  0  0  0  0
   20.9417   71.6981    2.6386 O   0  0  0  0  0  0  0  0  0  0  0  0
   22.2033   73.8334    3.7720 O   0  0  0  0  0  0  0  0  0  0  0  0
   21.9019   72.3892    1.8392 C   0  0  1  0  0  0  0  0  0  0  0  0
   22.8626   73.1578    2.7216 C   0  0  2  0  0  0  0  0  0  0  0  0
   22.8157   71.3520    1.2009 C   0  0  1  0  0  0  0  0  0  0  0  0
   23.7821   72.0563    3.2209 C   0  0  2  0  0  0  0  0  0  0  0  0
   20.3464   72.3402    3.0568 H   0  0  0  0  0  0  0  0  0  0  0  0
   21.6307   74.5245    3.4027 H   0  0  0  0  0  0  0  0  0  0  0  0
   24.5443   73.4436    5.5599 O   0  0  0  0  0  0  0  0  0  0  0  0
   28.9092   73.8265    4.1300 O   0  0  0  0  0  0  0  0  0  0  0  0
   25.1112   72.5300    3.4857 N   0  0  0  0  0  0  0  0  0  0  0  0
   26.7173   73.6339    4.8450 N   0  0  0  0  0  0  0  0  0  0  0  0
   25.3888   73.2161    4.6916 C   0  0  0  0  0  0  0  0  0  0  0  0
   26.1226   72.3124    2.5581 C   0  0  0  0  0  0  0  0  0  0  0  0
   27.3843   72.7165    2.7184 C   0  0  0  0  0  0  0  0  0  0  0  0
   27.7578   73.4414    3.9506 C   0  0  0  0  0  0  0  0  0  0  0  0
   26.9344   74.1155    5.6759 H   0  0  0  0  0  0  0  0  0  0  0  0
   21.5347   72.1893   -3.3492 O   0  0  0  0  0  0  0  0  0  0  0  0
   20.2558   73.1692   -3.2154 P   0  0  2  0  0  0  0  0  0  0  0  0
   20.8547   74.6167   -3.6231 O   0  0  0  0  0  0  0  0  0  0  0  0
   19.5896   73.1320   -1.8706 O   0  0  0  0  0  0  0  0  0  0  0  0
   19.2981   72.7628   -4.4484 O   0  0  0  0  0  0  0  0  0  0  0  0
   19.1199   70.4067   -4.6097 O   0  0  0  0  0  0  0  0  0  0  0  0
   16.9552   71.6410   -7.9049 O   0  0  0  0  0  0  0  0  0  0  0  0
   19.4784   72.9433   -7.2181 O   0  0  0  0  0  0  0  0  0  0  0  0
   15.5791   70.6773   -5.5325 O   0  0  0  0  0  0  0  0  0  0  0  0
   17.4756   71.7325   -6.5787 C   0  0  2  0  0  0  0  0  0  0  0  0
   19.0037   71.7387   -6.6280 C   0  0  2  0  0  0  0  0  0  0  0  0
   16.9735   70.5216   -5.7891 C   0  0  1  0  0  0  0  0  0  0  0  0
   19.5968   71.6040   -5.2248 C   0  0  1  0  0  0  0  0  0  0  0  0
   17.7026   70.3848   -4.4556 C   0  0  1  0  0  0  0  0  0  0  0  0
   17.2612   72.4003   -8.4256 H   0  0  0  0  0  0  0  0  0  0  0  0
   19.1058   73.0353   -8.1086 H   0  0  0  0  0  0  0  0  0  0  0  0
   15.1034   70.7656   -6.3732 H   0  0  0  0  0  0  0  0  0  0  0  0
   16.9392   68.1894   -4.7702 O   0  0  0  0  0  0  0  0  0  0  0  0
   17.6768   68.7454   -2.6856 O   0  0  0  0  0  0  0  0  0  0  0  0
   17.4518   69.0425   -3.8492 C   0  0  0  0  0  0  0  0  0  0  0  0
  1  4  1  0
  1 24  1  0
  1  2  1  1
  1  3  2  0
 25 28  1  0
 25 24  1  0
 25 26  1  6
 25 27  2  0
  6 11  1  0
  6 12  1  0
 29 36  1  0
 29 37  1  0
  9  7  1  1
  7 13  1  0
 10  8  1  1
  8 14  1  0
  4  5  1  0
 36 28  1  1
 33 30  1  6
 30 38  1  0
 34 31  1  1
 31 39  1  0
 35 32  1  1
 32 40  1  0
 41 43  1  0
 15 19  2  0
 42 43  2  0
 16 22  2  0
 12 17  1  6
 17 19  1  0
 17 20  1  0
 18 19  1  0
 18 22  1  0
 18 23  1  0
  9 10  1  0
  9 11  1  0
 10 12  1  0
 11  5  1  6
 33 34  1  0
 33 35  1  0
 34 36  1  0
 35 37  1  0
 37 43  1  6
 20 21  2  0
 21 22  1  0
M  CHG  3   2  -1  26  -1  41  -1
M  END
>  <COMPND>  (51) 
    udp_gluA.pdb 

>  <AUTHOR>  (51) 
    GENERATED BY OPEN BABEL 3.1.1

>  <MASTER>  (51) 
        0    0    0    0    0    0    0    0   56    0   56    0

>  <minimizedAffinity>  (51) 
-6.81832

>  <CNNscore>  (51) 
0.5099309087

>  <CNNaffinity>  (51) 
4.3035125732

>  <CNN_VS>  (51) 
2.1944940090

>  <CNNaffinity_variance>  (51) 
0.1721855551

$$$$
52
     RDKit          3D

 43 45  0  0  0  0  0  0  0  0999 V2000
   22.2489   73.8895   -4.5979 P   0  0  2  0  0  0  0  0  0  0  0  0
   22.6348   72.3373   -4.8443 O   0  0  0  0  0  0  0  0  0  0  0  0
   22.7943   74.8473   -5.6163 O   0  0  0  0  0  0  0  0  0  0  0  0
   22.6952   74.1624   -3.0668 O   0  0  0  0  0  0  0  0  0  0  0  0
   22.1405   73.3529   -2.0463 C   0  0  0  0  0  0  0  0  0  0  0  0
   23.3084   73.1212    0.0418 O   0  0  0  0  0  0  0  0  0  0  0  0
   24.3297   70.5144   -1.0320 O   0  0  0  0  0  0  0  0  0  0  0  0
   22.3167   69.7264    0.6303 O   0  0  0  0  0  0  0  0  0  0  0  0
   23.0539   71.1290   -1.2141 C   0  0  1  0  0  0  0  0  0  0  0  0
   22.2302   71.0115    0.0508 C   0  0  2  0  0  0  0  0  0  0  0  0
   23.2674   72.6330   -1.3167 C   0  0  1  0  0  0  0  0  0  0  0  0
   22.8426   72.0906    0.9274 C   0  0  2  0  0  0  0  0  0  0  0  0
   24.2189   69.5527   -0.9637 H   0  0  0  0  0  0  0  0  0  0  0  0
   21.9132   69.0752    0.0344 H   0  0  0  0  0  0  0  0  0  0  0  0
   23.0838   71.9871    3.7394 O   0  0  0  0  0  0  0  0  0  0  0  0
   19.1404   74.2950    4.3453 O   0  0  0  0  0  0  0  0  0  0  0  0
   21.8934   72.6564    1.8438 N   0  0  0  0  0  0  0  0  0  0  0  0
   21.1190   73.1358    4.0385 N   0  0  0  0  0  0  0  0  0  0  0  0
   22.1082   72.5492    3.2382 C   0  0  0  0  0  0  0  0  0  0  0  0
   20.7664   73.3095    1.3597 C   0  0  0  0  0  0  0  0  0  0  0  0
   19.8323   73.8637    2.1350 C   0  0  0  0  0  0  0  0  0  0  0  0
   19.9808   73.7952    3.6035 C   0  0  0  0  0  0  0  0  0  0  0  0
   21.2457   73.0721    5.0128 H   0  0  0  0  0  0  0  0  0  0  0  0
   20.6356   73.8520   -4.5050 O   0  0  0  0  0  0  0  0  0  0  0  0
   19.5103   73.6709   -5.6515 P   0  0  2  0  0  0  0  0  0  0  0  0
   20.3641   73.1686   -6.9318 O   0  0  0  0  0  0  0  0  0  0  0  0
   18.6838   74.8988   -5.9026 O   0  0  0  0  0  0  0  0  0  0  0  0
   18.6638   72.3763   -5.1934 O   0  0  0  0  0  0  0  0  0  0  0  0
   19.2655   70.3944   -4.0447 O   0  0  0  0  0  0  0  0  0  0  0  0
   16.4614   68.9893   -6.7338 O   0  0  0  0  0  0  0  0  0  0  0  0
   18.4650   70.9442   -7.5694 O   0  0  0  0  0  0  0  0  0  0  0  0
   15.7582   69.3226   -3.9329 O   0  0  0  0  0  0  0  0  0  0  0  0
   17.0653   69.9427   -5.8595 C   0  0  2  0  0  0  0  0  0  0  0  0
   18.4882   70.2414   -6.3324 C   0  0  2  0  0  0  0  0  0  0  0  0
   17.0870   69.3453   -4.4508 C   0  0  1  0  0  0  0  0  0  0  0  0
   19.2440   71.0775   -5.2987 C   0  0  1  0  0  0  0  0  0  0  0  0
   17.9631   70.1678   -3.5103 C   0  0  1  0  0  0  0  0  0  0  0  0
   16.4367   69.3471   -7.6353 H   0  0  0  0  0  0  0  0  0  0  0  0
   17.9866   70.4196   -8.2300 H   0  0  0  0  0  0  0  0  0  0  0  0
   15.1902   68.8024   -4.5224 H   0  0  0  0  0  0  0  0  0  0  0  0
   19.4643   69.7406   -1.7594 O   0  0  0  0  0  0  0  0  0  0  0  0
   17.4828   68.6128   -1.7291 O   0  0  0  0  0  0  0  0  0  0  0  0
   18.2436   69.4136   -2.2514 C   0  0  0  0  0  0  0  0  0  0  0  0
  1  4  1  0
  1 24  1  0
  1  2  1  6
  1  3  2  0
 25 28  1  0
 25 24  1  0
 25 26  1  6
 25 27  2  0
  6 11  1  0
  6 12  1  0
 29 36  1  0
 29 37  1  0
  9  7  1  1
  7 13  1  0
 10  8  1  1
  8 14  1  0
  4  5  1  0
 36 28  1  1
 33 30  1  6
 30 38  1  0
 34 31  1  6
 31 39  1  0
 35 32  1  1
 32 40  1  0
 41 43  1  0
 15 19  2  0
 42 43  2  0
 16 22  2  0
 12 17  1  1
 17 19  1  0
 17 20  1  0
 18 19  1  0
 18 22  1  0
 18 23  1  0
  9 10  1  0
  9 11  1  0
 10 12  1  0
 11  5  1  6
 33 34  1  0
 33 35  1  0
 34 36  1  0
 35 37  1  0
 37 43  1  1
 20 21  2  0
 21 22  1  0
M  CHG  3   2  -1  26  -1  41  -1
M  END
>  <COMPND>  (52) 
    udp_gluA.pdb 

>  <AUTHOR>  (52) 
    GENERATED BY OPEN BABEL 3.1.1

>  <MASTER>  (52) 
        0    0    0    0    0    0    0    0   56    0   56    0

>  <minimizedAffinity>  (52) 
-6.43935

>  <CNNscore>  (52) 
0.4739349186

>  <CNNaffinity>  (52) 
4.2534508705

>  <CNN_VS>  (52) 
2.0158588886

>  <CNNaffinity_variance>  (52) 
0.1677318364

$$$$
53
     RDKit          3D

 43 45  0  0  0  0  0  0  0  0999 V2000
   18.2082   70.0352   -2.6098 P   0  0  2  0  0  0  0  0  0  0  0  0
   17.7685   68.5632   -2.1011 O   0  0  0  0  0  0  0  0  0  0  0  0
   17.2921   71.1489   -2.1947 O   0  0  0  0  0  0  0  0  0  0  0  0
   18.4119   69.8503   -4.2043 O   0  0  0  0  0  0  0  0  0  0  0  0
   17.4215   69.1516   -4.9360 C   0  0  0  0  0  0  0  0  0  0  0  0
   17.4809   71.3483   -5.9099 O   0  0  0  0  0  0  0  0  0  0  0  0
   15.5352   70.2997   -7.9363 O   0  0  0  0  0  0  0  0  0  0  0  0
   17.9014   70.2286   -9.2898 O   0  0  0  0  0  0  0  0  0  0  0  0
   16.6291   69.6339   -7.3049 C   0  0  1  0  0  0  0  0  0  0  0  0
   17.9419   70.1192   -7.8823 C   0  0  2  0  0  0  0  0  0  0  0  0
   16.7121   70.1267   -5.8667 C   0  0  1  0  0  0  0  0  0  0  0  0
   18.1104   71.4640   -7.1959 C   0  0  2  0  0  0  0  0  0  0  0  0
   15.4622   70.0010   -8.8567 H   0  0  0  0  0  0  0  0  0  0  0  0
   17.7933   69.3464   -9.6797 H   0  0  0  0  0  0  0  0  0  0  0  0
   20.2639   69.6523   -7.4344 O   0  0  0  0  0  0  0  0  0  0  0  0
   23.3620   72.9238   -6.4634 O   0  0  0  0  0  0  0  0  0  0  0  0
   19.4898   71.8156   -7.0106 N   0  0  0  0  0  0  0  0  0  0  0  0
   21.8048   71.2832   -6.9495 N   0  0  0  0  0  0  0  0  0  0  0  0
   20.4948   70.8298   -7.1531 C   0  0  0  0  0  0  0  0  0  0  0  0
   19.8356   73.1236   -6.6934 C   0  0  0  0  0  0  0  0  0  0  0  0
   21.0887   73.5407   -6.5025 C   0  0  0  0  0  0  0  0  0  0  0  0
   22.1980   72.5732   -6.6319 C   0  0  0  0  0  0  0  0  0  0  0  0
   22.5215   70.6145   -7.0413 H   0  0  0  0  0  0  0  0  0  0  0  0
   19.7234   70.1704   -2.0632 O   0  0  0  0  0  0  0  0  0  0  0  0
   20.9564   71.0858   -2.5686 P   0  0  2  0  0  0  0  0  0  0  0  0
   20.3062   72.5655   -2.6582 O   0  0  0  0  0  0  0  0  0  0  0  0
   21.5931   70.6119   -3.8430 O   0  0  0  0  0  0  0  0  0  0  0  0
   21.9579   71.1568   -1.3059 O   0  0  0  0  0  0  0  0  0  0  0  0
   22.8656   72.9144   -0.0036 O   0  0  0  0  0  0  0  0  0  0  0  0
   26.0951   70.3593   -0.3350 O   0  0  0  0  0  0  0  0  0  0  0  0
   24.3826   70.8884   -2.6419 O   0  0  0  0  0  0  0  0  0  0  0  0
   24.5976   70.5033    2.1525 O   0  0  0  0  0  0  0  0  0  0  0  0
   24.7139   70.7090   -0.2452 C   0  0  2  0  0  0  0  0  0  0  0  0
   24.3379   71.6140   -1.4187 C   0  0  2  0  0  0  0  0  0  0  0  0
   24.4965   71.4399    1.0816 C   0  0  1  0  0  0  0  0  0  0  0  0
   22.9348   72.1938   -1.2347 C   0  0  1  0  0  0  0  0  0  0  0  0
   23.1203   72.0970    1.1366 C   0  0  1  0  0  0  0  0  0  0  0  0
   26.2572   69.8935   -1.1705 H   0  0  0  0  0  0  0  0  0  0  0  0
   25.2701   70.5174   -2.7650 H   0  0  0  0  0  0  0  0  0  0  0  0
   25.4690   70.0778    2.1288 H   0  0  0  0  0  0  0  0  0  0  0  0
   24.2694   73.2845    2.8012 O   0  0  0  0  0  0  0  0  0  0  0  0
   22.0150   73.5991    2.6674 O   0  0  0  0  0  0  0  0  0  0  0  0
   23.0408   73.0676    2.2697 C   0  0  0  0  0  0  0  0  0  0  0  0
  1  4  1  0
  1 24  1  0
  1  2  1  1
  1  3  2  0
 25 28  1  0
 25 24  1  0
 25 26  1  6
 25 27  2  0
  6 11  1  0
  6 12  1  0
 29 36  1  0
 29 37  1  0
  9  7  1  6
  7 13  1  0
 10  8  1  6
  8 14  1  0
  4  5  1  0
 36 28  1  1
 33 30  1  6
 30 38  1  0
 34 31  1  6
 31 39  1  0
 35 32  1  1
 32 40  1  0
 41 43  1  0
 15 19  2  0
 42 43  2  0
 16 22  2  0
 12 17  1  1
 17 19  1  0
 17 20  1  0
 18 19  1  0
 18 22  1  0
 18 23  1  0
  9 10  1  0
  9 11  1  0
 10 12  1  0
 11  5  1  1
 33 34  1  0
 33 35  1  0
 34 36  1  0
 35 37  1  0
 37 43  1  1
 20 21  2  0
 21 22  1  0
M  CHG  3   2  -1  26  -1  41  -1
M  END
>  <COMPND>  (53) 
    udp_gluA.pdb 

>  <AUTHOR>  (53) 
    GENERATED BY OPEN BABEL 3.1.1

>  <MASTER>  (53) 
        0    0    0    0    0    0    0    0   56    0   56    0

>  <minimizedAffinity>  (53) 
-8.07300

>  <CNNscore>  (53) 
0.4650965631

>  <CNNaffinity>  (53) 
4.2824745178

>  <CNN_VS>  (53) 
1.9917641878

>  <CNNaffinity_variance>  (53) 
0.5185308456

$$$$
54
     RDKit          3D

 43 45  0  0  0  0  0  0  0  0999 V2000
   22.3805   73.2898   -5.5824 P   0  0  2  0  0  0  0  0  0  0  0  0
   23.8417   72.6795   -5.9158 O   0  0  0  0  0  0  0  0  0  0  0  0
   22.0721   74.5970   -6.2518 O   0  0  0  0  0  0  0  0  0  0  0  0
   22.3223   73.2976   -3.9655 O   0  0  0  0  0  0  0  0  0  0  0  0
   21.2207   73.9213   -3.3316 C   0  0  0  0  0  0  0  0  0  0  0  0
   21.0716   71.7367   -2.3403 O   0  0  0  0  0  0  0  0  0  0  0  0
   18.2778   72.4888   -1.5525 O   0  0  0  0  0  0  0  0  0  0  0  0
   19.6680   72.8494    0.7655 O   0  0  0  0  0  0  0  0  0  0  0  0
   19.4495   73.3024   -1.6134 C   0  0  1  0  0  0  0  0  0  0  0  0
   20.3688   72.9850   -0.4531 C   0  0  2  0  0  0  0  0  0  0  0  0
   20.2759   72.8471   -2.8084 C   0  0  1  0  0  0  0  0  0  0  0  0
   21.0111   71.6849   -0.9060 C   0  0  2  0  0  0  0  0  0  0  0  0
   17.7337   72.7610   -0.7965 H   0  0  0  0  0  0  0  0  0  0  0  0
   19.2780   73.7036    1.0109 H   0  0  0  0  0  0  0  0  0  0  0  0
   21.8650   69.4675    0.6205 O   0  0  0  0  0  0  0  0  0  0  0  0
   26.1326   71.1602    1.0283 O   0  0  0  0  0  0  0  0  0  0  0  0
   22.3399   71.5206   -0.3883 N   0  0  0  0  0  0  0  0  0  0  0  0
   23.9895   70.3131    0.8230 N   0  0  0  0  0  0  0  0  0  0  0  0
   22.6659   70.3693    0.3670 C   0  0  0  0  0  0  0  0  0  0  0  0
   23.3038   72.4916   -0.6312 C   0  0  0  0  0  0  0  0  0  0  0  0
   24.5614   72.4240   -0.1900 C   0  0  0  0  0  0  0  0  0  0  0  0
   24.9835   71.2539    0.6077 C   0  0  0  0  0  0  0  0  0  0  0  0
   24.2395   69.5219    1.3529 H   0  0  0  0  0  0  0  0  0  0  0  0
   21.3835   72.0800   -5.9762 O   0  0  0  0  0  0  0  0  0  0  0  0
   20.8784   71.5468   -7.4164 P   0  0  2  0  0  0  0  0  0  0  0  0
   21.5434   70.0746   -7.5198 O   0  0  0  0  0  0  0  0  0  0  0  0
   21.2121   72.4579   -8.5620 O   0  0  0  0  0  0  0  0  0  0  0  0
   19.3016   71.2684   -7.2198 O   0  0  0  0  0  0  0  0  0  0  0  0
   18.6090   69.5527   -5.7413 O   0  0  0  0  0  0  0  0  0  0  0  0
   15.1694   70.2137   -7.9322 O   0  0  0  0  0  0  0  0  0  0  0  0
   17.7745   70.1397   -9.2521 O   0  0  0  0  0  0  0  0  0  0  0  0
   15.3856   71.2245   -5.2151 O   0  0  0  0  0  0  0  0  0  0  0  0
   16.3994   70.5667   -7.2994 C   0  0  2  0  0  0  0  0  0  0  0  0
   17.5397   69.7476   -7.9046 C   0  0  2  0  0  0  0  0  0  0  0  0
   16.2648   70.2685   -5.8045 C   0  0  1  0  0  0  0  0  0  0  0  0
   18.8288   69.9278   -7.1016 C   0  0  1  0  0  0  0  0  0  0  0  0
   17.6147   70.3462   -5.0972 C   0  0  1  0  0  0  0  0  0  0  0  0
   15.2313   70.3946   -8.8834 H   0  0  0  0  0  0  0  0  0  0  0  0
   16.9606   70.0283   -9.7673 H   0  0  0  0  0  0  0  0  0  0  0  0
   14.5227   71.1854   -5.6564 H   0  0  0  0  0  0  0  0  0  0  0  0
   16.3405   69.1247   -3.5526 O   0  0  0  0  0  0  0  0  0  0  0  0
   18.4191   69.7895   -2.8917 O   0  0  0  0  0  0  0  0  0  0  0  0
   17.5346   69.7416   -3.7333 C   0  0  0  0  0  0  0  0  0  0  0  0
  1  4  1  0
  1 24  1  0
  1  2  1  1
  1  3  2  0
 25 28  1  0
 25 24  1  0
 25 26  1  6
 25 27  2  0
  6 11  1  0
  6 12  1  0
 29 36  1  0
 29 37  1  0
  9  7  1  1
  7 13  1  0
 10  8  1  1
  8 14  1  0
  4  5  1  0
 36 28  1  1
 33 30  1  6
 30 38  1  0
 34 31  1  6
 31 39  1  0
 35 32  1  1
 32 40  1  0
 41 43  1  0
 15 19  2  0
 42 43  2  0
 16 22  2  0
 12 17  1  1
 17 19  1  0
 17 20  1  0
 18 19  1  0
 18 22  1  0
 18 23  1  0
  9 10  1  0
  9 11  1  0
 10 12  1  0
 11  5  1  1
 33 34  1  0
 33 35  1  0
 34 36  1  0
 35 37  1  0
 37 43  1  1
 20 21  2  0
 21 22  1  0
M  CHG  3   2  -1  26  -1  41  -1
M  END
>  <COMPND>  (54) 
    udp_gluA.pdb 

>  <AUTHOR>  (54) 
    GENERATED BY OPEN BABEL 3.1.1

>  <MASTER>  (54) 
        0    0    0    0    0    0    0    0   56    0   56    0

>  <minimizedAffinity>  (54) 
-7.98037

>  <CNNscore>  (54) 
0.4644704461

>  <CNNaffinity>  (54) 
4.4325709343

>  <CNN_VS>  (54) 
2.0587983131

>  <CNNaffinity_variance>  (54) 
0.1472365111

$$$$
55
     RDKit          3D

 43 45  0  0  0  0  0  0  0  0999 V2000
   17.4541   69.4805   -2.8149 P   0  0  2  0  0  0  0  0  0  0  0  0
   17.7701   68.3197   -3.8973 O   0  0  0  0  0  0  0  0  0  0  0  0
   17.1195   68.9883   -1.4374 O   0  0  0  0  0  0  0  0  0  0  0  0
   16.3195   70.3831   -3.5333 O   0  0  0  0  0  0  0  0  0  0  0  0
   16.7252   71.3394   -4.4953 C   0  0  0  0  0  0  0  0  0  0  0  0
   15.0003   70.8537   -6.0974 O   0  0  0  0  0  0  0  0  0  0  0  0
   17.1831   70.7984   -8.1526 O   0  0  0  0  0  0  0  0  0  0  0  0
   16.0780   73.2637   -8.5232 O   0  0  0  0  0  0  0  0  0  0  0  0
   17.0462   71.6326   -7.0019 C   0  0  1  0  0  0  0  0  0  0  0  0
   15.9818   72.6828   -7.2395 C   0  0  2  0  0  0  0  0  0  0  0  0
   16.4281   70.7987   -5.8880 C   0  0  1  0  0  0  0  0  0  0  0  0
   14.7033   71.8837   -7.0535 C   0  0  2  0  0  0  0  0  0  0  0  0
   17.5761   71.3094   -8.8779 H   0  0  0  0  0  0  0  0  0  0  0  0
   16.9084   73.7614   -8.5915 H   0  0  0  0  0  0  0  0  0  0  0  0
   12.9855   73.4317   -8.6751 O   0  0  0  0  0  0  0  0  0  0  0  0
   10.5920   74.9254   -5.0304 O   0  0  0  0  0  0  0  0  0  0  0  0
   13.6229   72.6866   -6.5545 N   0  0  0  0  0  0  0  0  0  0  0  0
   11.7957   74.1750   -6.8582 N   0  0  0  0  0  0  0  0  0  0  0  0
   12.8196   73.4267   -7.4539 C   0  0  0  0  0  0  0  0  0  0  0  0
   13.3672   72.7341   -5.1895 C   0  0  0  0  0  0  0  0  0  0  0  0
   12.3875   73.4519   -4.6365 C   0  0  0  0  0  0  0  0  0  0  0  0
   11.5028   74.2544   -5.5063 C   0  0  0  0  0  0  0  0  0  0  0  0
   11.2244   74.7002   -7.4641 H   0  0  0  0  0  0  0  0  0  0  0  0
   18.7684   70.4182   -2.8942 O   0  0  0  0  0  0  0  0  0  0  0  0
   19.7257   71.0044   -1.7308 P   0  0  2  0  0  0  0  0  0  0  0  0
   20.2286   69.6730   -0.9597 O   0  0  0  0  0  0  0  0  0  0  0  0
   19.0658   72.0205   -0.8441 O   0  0  0  0  0  0  0  0  0  0  0  0
   21.0325   71.5426   -2.5086 O   0  0  0  0  0  0  0  0  0  0  0  0
   22.6641   72.2034   -0.9242 O   0  0  0  0  0  0  0  0  0  0  0  0
   24.5251   73.1457   -4.4902 O   0  0  0  0  0  0  0  0  0  0  0  0
   21.6885   73.7263   -4.1016 O   0  0  0  0  0  0  0  0  0  0  0  0
   25.3390   70.7872   -2.9982 O   0  0  0  0  0  0  0  0  0  0  0  0
   23.6657   72.4034   -3.6251 C   0  0  2  0  0  0  0  0  0  0  0  0
   22.5804   73.3250   -3.0680 C   0  0  2  0  0  0  0  0  0  0  0  0
   24.5166   71.8347   -2.4874 C   0  0  1  0  0  0  0  0  0  0  0  0
   21.7832   72.6271   -1.9653 C   0  0  1  0  0  0  0  0  0  0  0  0
   23.6456   71.2697   -1.3691 C   0  0  1  0  0  0  0  0  0  0  0  0
   24.0062   73.5169   -5.2212 H   0  0  0  0  0  0  0  0  0  0  0  0
   22.1877   74.1696   -4.8048 H   0  0  0  0  0  0  0  0  0  0  0  0
   25.8983   71.1336   -3.7110 H   0  0  0  0  0  0  0  0  0  0  0  0
   23.8002   71.4644    0.9632 O   0  0  0  0  0  0  0  0  0  0  0  0
   25.5579   70.4951   -0.1184 O   0  0  0  0  0  0  0  0  0  0  0  0
   24.4562   71.0231   -0.1385 C   0  0  0  0  0  0  0  0  0  0  0  0
  1  4  1  0
  1 24  1  0
  1  2  1  6
  1  3  2  0
 25 28  1  0
 25 24  1  0
 25 26  1  1
 25 27  2  0
  6 11  1  0
  6 12  1  0
 29 36  1  0
 29 37  1  0
  9  7  1  6
  7 13  1  0
 10  8  1  6
  8 14  1  0
  4  5  1  0
 36 28  1  6
 33 30  1  6
 30 38  1  0
 34 31  1  6
 31 39  1  0
 35 32  1  6
 32 40  1  0
 41 43  1  0
 15 19  2  0
 42 43  2  0
 16 22  2  0
 12 17  1  1
 17 19  1  0
 17 20  1  0
 18 19  1  0
 18 22  1  0
 18 23  1  0
  9 10  1  0
  9 11  1  0
 10 12  1  0
 11  5  1  1
 33 34  1  0
 33 35  1  0
 34 36  1  0
 35 37  1  0
 37 43  1  1
 20 21  2  0
 21 22  1  0
M  CHG  3   2  -1  26  -1  41  -1
M  END
>  <COMPND>  (55) 
    udp_gluA.pdb 

>  <AUTHOR>  (55) 
    GENERATED BY OPEN BABEL 3.1.1

>  <MASTER>  (55) 
        0    0    0    0    0    0    0    0   56    0   56    0

>  <minimizedAffinity>  (55) 
-7.29915

>  <CNNscore>  (55) 
0.4558590949

>  <CNNaffinity>  (55) 
4.0347642899

>  <CNN_VS>  (55) 
1.8392839432

>  <CNNaffinity_variance>  (55) 
0.1683069617

$$$$
56
     RDKit          3D

 43 45  0  0  0  0  0  0  0  0999 V2000
   17.4478   69.6760   -2.7136 P   0  0  2  0  0  0  0  0  0  0  0  0
   17.0952   68.5952   -1.5619 O   0  0  0  0  0  0  0  0  0  0  0  0
   16.6453   70.9428   -2.6607 O   0  0  0  0  0  0  0  0  0  0  0  0
   17.3351   68.8298   -4.0881 O   0  0  0  0  0  0  0  0  0  0  0  0
   16.1459   68.9321   -4.8495 C   0  0  0  0  0  0  0  0  0  0  0  0
   15.3762   69.9692   -6.8767 O   0  0  0  0  0  0  0  0  0  0  0  0
   18.2612   70.1053   -7.6826 O   0  0  0  0  0  0  0  0  0  0  0  0
   17.7591   72.6477   -6.8339 O   0  0  0  0  0  0  0  0  0  0  0  0
   17.6761   70.2586   -6.3893 C   0  0  1  0  0  0  0  0  0  0  0  0
   16.9865   71.6022   -6.2819 C   0  0  2  0  0  0  0  0  0  0  0  0
   16.5055   69.2905   -6.2856 C   0  0  1  0  0  0  0  0  0  0  0  0
   15.6989   71.3581   -7.0502 C   0  0  2  0  0  0  0  0  0  0  0  0
   19.0117   70.7140   -7.7725 H   0  0  0  0  0  0  0  0  0  0  0  0
   18.5674   72.7639   -6.3095 H   0  0  0  0  0  0  0  0  0  0  0  0
   14.0147   72.9307   -8.6834 O   0  0  0  0  0  0  0  0  0  0  0  0
   11.5511   74.3757   -5.0660 O   0  0  0  0  0  0  0  0  0  0  0  0
   14.6096   72.1552   -6.5613 N   0  0  0  0  0  0  0  0  0  0  0  0
   12.7899   73.6497   -6.8801 N   0  0  0  0  0  0  0  0  0  0  0  0
   13.8247   72.9087   -7.4659 C   0  0  0  0  0  0  0  0  0  0  0  0
   14.3270   72.1839   -5.2011 C   0  0  0  0  0  0  0  0  0  0  0  0
   13.3372   72.8949   -4.6575 C   0  0  0  0  0  0  0  0  0  0  0  0
   12.4705   73.7105   -5.5333 C   0  0  0  0  0  0  0  0  0  0  0  0
   12.2311   74.1840   -7.4896 H   0  0  0  0  0  0  0  0  0  0  0  0
   19.0420   69.8812   -2.5429 O   0  0  0  0  0  0  0  0  0  0  0  0
   19.8883   70.8700   -1.5838 P   0  0  2  0  0  0  0  0  0  0  0  0
   20.7128   69.8494   -0.6356 O   0  0  0  0  0  0  0  0  0  0  0  0
   19.0519   71.8686   -0.8373 O   0  0  0  0  0  0  0  0  0  0  0  0
   21.0047   71.5205   -2.5496 O   0  0  0  0  0  0  0  0  0  0  0  0
   21.3598   70.8374   -4.7894 O   0  0  0  0  0  0  0  0  0  0  0  0
   25.0011   72.5446   -3.8438 O   0  0  0  0  0  0  0  0  0  0  0  0
   23.6246   70.8312   -1.9193 O   0  0  0  0  0  0  0  0  0  0  0  0
   23.1139   73.9735   -5.5312 O   0  0  0  0  0  0  0  0  0  0  0  0
   23.5842   72.3810   -3.7854 C   0  0  2  0  0  0  0  0  0  0  0  0
   23.2515   70.9752   -3.2848 C   0  0  2  0  0  0  0  0  0  0  0  0
   23.0255   72.5902   -5.1947 C   0  0  1  0  0  0  0  0  0  0  0  0
   21.7569   70.6836   -3.4262 C   0  0  1  0  0  0  0  0  0  0  0  0
   21.5646   72.1587   -5.2846 C   0  0  1  0  0  0  0  0  0  0  0  0
   25.3784   72.4161   -2.9592 H   0  0  0  0  0  0  0  0  0  0  0  0
   24.5717   71.0151   -1.8222 H   0  0  0  0  0  0  0  0  0  0  0  0
   24.0388   74.2609   -5.4777 H   0  0  0  0  0  0  0  0  0  0  0  0
   21.2172   70.7724   -7.1444 O   0  0  0  0  0  0  0  0  0  0  0  0
   20.7432   72.9886   -7.3960 O   0  0  0  0  0  0  0  0  0  0  0  0
   21.1292   72.0540   -6.7100 C   0  0  0  0  0  0  0  0  0  0  0  0
  1  4  1  0
  1 24  1  0
  1  2  1  1
  1  3  2  0
 25 28  1  0
 25 24  1  0
 25 26  1  1
 25 27  2  0
  6 11  1  0
  6 12  1  0
 29 36  1  0
 29 37  1  0
  9  7  1  6
  7 13  1  0
 10  8  1  6
  8 14  1  0
  4  5  1  0
 36 28  1  1
 33 30  1  6
 30 38  1  0
 34 31  1  1
 31 39  1  0
 35 32  1  1
 32 40  1  0
 41 43  1  0
 15 19  2  0
 42 43  2  0
 16 22  2  0
 12 17  1  1
 17 19  1  0
 17 20  1  0
 18 19  1  0
 18 22  1  0
 18 23  1  0
  9 10  1  0
  9 11  1  0
 10 12  1  0
 11  5  1  1
 33 34  1  0
 33 35  1  0
 34 36  1  0
 35 37  1  0
 37 43  1  6
 20 21  2  0
 21 22  1  0
M  CHG  3   2  -1  26  -1  41  -1
M  END
>  <COMPND>  (56) 
    udp_gluA.pdb 

>  <AUTHOR>  (56) 
    GENERATED BY OPEN BABEL 3.1.1

>  <MASTER>  (56) 
        0    0    0    0    0    0    0    0   56    0   56    0

>  <minimizedAffinity>  (56) 
-7.26843

>  <CNNscore>  (56) 
0.4519100785

>  <CNNaffinity>  (56) 
4.3376340866

>  <CNN_VS>  (56) 
1.9602205753

>  <CNNaffinity_variance>  (56) 
0.0577574968

$$$$
57
     RDKit          3D

 43 45  0  0  0  0  0  0  0  0999 V2000
   21.3368   70.6031   -1.9477 P   0  0  2  0  0  0  0  0  0  0  0  0
   20.5710   69.7055   -0.8401 O   0  0  0  0  0  0  0  0  0  0  0  0
   21.8367   69.8449   -3.1423 O   0  0  0  0  0  0  0  0  0  0  0  0
   22.4625   71.3939   -1.0960 O   0  0  0  0  0  0  0  0  0  0  0  0
   23.0903   70.7234   -0.0187 C   0  0  0  0  0  0  0  0  0  0  0  0
   23.1261   72.9721    0.8296 O   0  0  0  0  0  0  0  0  0  0  0  0
   25.1825   72.0036    2.7853 O   0  0  0  0  0  0  0  0  0  0  0  0
   22.9074   72.0522    4.2880 O   0  0  0  0  0  0  0  0  0  0  0  0
   24.0405   71.3235    2.2638 C   0  0  1  0  0  0  0  0  0  0  0  0
   22.7749   71.8646    2.8945 C   0  0  2  0  0  0  0  0  0  0  0  0
   23.8725   71.7361    0.8078 C   0  0  1  0  0  0  0  0  0  0  0  0
   22.5824   73.1715    2.1442 C   0  0  2  0  0  0  0  0  0  0  0  0
   25.3101   71.7558    3.7148 H   0  0  0  0  0  0  0  0  0  0  0  0
   23.0273   71.1915    4.7201 H   0  0  0  0  0  0  0  0  0  0  0  0
   21.1262   74.5592    4.1266 O   0  0  0  0  0  0  0  0  0  0  0  0
   17.2805   74.5226    1.5864 O   0  0  0  0  0  0  0  0  0  0  0  0
   21.1992   73.5374    2.0268 N   0  0  0  0  0  0  0  0  0  0  0  0
   19.2119   74.5388    2.8600 N   0  0  0  0  0  0  0  0  0  0  0  0
   20.5614   74.2334    3.0808 C   0  0  0  0  0  0  0  0  0  0  0  0
   20.4900   73.2089    0.8780 C   0  0  0  0  0  0  0  0  0  0  0  0
   19.2040   73.5068    0.6819 C   0  0  0  0  0  0  0  0  0  0  0  0
   18.4637   74.2326    1.7348 C   0  0  0  0  0  0  0  0  0  0  0  0
   18.7460   75.0214    3.5806 H   0  0  0  0  0  0  0  0  0  0  0  0
   20.2589   71.7590   -2.2865 O   0  0  0  0  0  0  0  0  0  0  0  0
   20.3185   72.9933   -3.3289 P   0  0  2  0  0  0  0  0  0  0  0  0
   21.7164   72.7519   -4.1085 O   0  0  0  0  0  0  0  0  0  0  0  0
   20.1926   74.3458   -2.6895 O   0  0  0  0  0  0  0  0  0  0  0  0
   19.1799   72.6611   -4.4223 O   0  0  0  0  0  0  0  0  0  0  0  0
   18.9667   70.3614   -4.9467 O   0  0  0  0  0  0  0  0  0  0  0  0
   16.5742   72.1059   -7.8278 O   0  0  0  0  0  0  0  0  0  0  0  0
   19.1545   73.2860   -7.1324 O   0  0  0  0  0  0  0  0  0  0  0  0
   15.3697   70.7692   -5.5445 O   0  0  0  0  0  0  0  0  0  0  0  0
   17.1931   71.9835   -6.5472 C   0  0  2  0  0  0  0  0  0  0  0  0
   18.7133   72.0010   -6.7097 C   0  0  2  0  0  0  0  0  0  0  0  0
   16.7394   70.6600   -5.9271 C   0  0  1  0  0  0  0  0  0  0  0  0
   19.4082   71.6433   -5.3952 C   0  0  1  0  0  0  0  0  0  0  0  0
   17.5646   70.3117   -4.6918 C   0  0  1  0  0  0  0  0  0  0  0  0
   16.8480   72.9398   -8.2411 H   0  0  0  0  0  0  0  0  0  0  0  0
   18.7173   73.5196   -7.9659 H   0  0  0  0  0  0  0  0  0  0  0  0
   14.8335   70.9909   -6.3218 H   0  0  0  0  0  0  0  0  0  0  0  0
   17.7611   68.6805   -3.0178 O   0  0  0  0  0  0  0  0  0  0  0  0
   16.8601   68.0258   -5.0075 O   0  0  0  0  0  0  0  0  0  0  0  0
   17.3465   68.8887   -4.2921 C   0  0  0  0  0  0  0  0  0  0  0  0
  1  4  1  0
  1 24  1  0
  1  2  1  1
  1  3  2  0
 25 28  1  0
 25 24  1  0
 25 26  1  6
 25 27  2  0
  6 11  1  0
  6 12  1  0
 29 36  1  0
 29 37  1  0
  9  7  1  1
  7 13  1  0
 10  8  1  1
  8 14  1  0
  4  5  1  0
 36 28  1  1
 33 30  1  6
 30 38  1  0
 34 31  1  1
 31 39  1  0
 35 32  1  1
 32 40  1  0
 41 43  1  0
 15 19  2  0
 42 43  2  0
 16 22  2  0
 12 17  1  6
 17 19  1  0
 17 20  1  0
 18 19  1  0
 18 22  1  0
 18 23  1  0
  9 10  1  0
  9 11  1  0
 10 12  1  0
 11  5  1  6
 33 34  1  0
 33 35  1  0
 34 36  1  0
 35 37  1  0
 37 43  1  6
 20 21  2  0
 21 22  1  0
M  CHG  3   2  -1  26  -1  41  -1
M  END
>  <COMPND>  (57) 
    udp_gluA.pdb 

>  <AUTHOR>  (57) 
    GENERATED BY OPEN BABEL 3.1.1

>  <MASTER>  (57) 
        0    0    0    0    0    0    0    0   56    0   56    0

>  <minimizedAffinity>  (57) 
-6.37940

>  <CNNscore>  (57) 
0.4464690983

>  <CNNaffinity>  (57) 
4.0585050583

>  <CNN_VS>  (57) 
1.8119970560

>  <CNNaffinity_variance>  (57) 
0.1659070551

$$$$
58
     RDKit          3D

 43 45  0  0  0  0  0  0  0  0999 V2000
   18.8323   73.0780   -3.3349 P   0  0  2  0  0  0  0  0  0  0  0  0
   18.9683   74.1560   -2.1356 O   0  0  0  0  0  0  0  0  0  0  0  0
   17.4244   72.7673   -3.7509 O   0  0  0  0  0  0  0  0  0  0  0  0
   19.7087   71.8171   -2.8250 O   0  0  0  0  0  0  0  0  0  0  0  0
   19.5047   71.3403   -1.5076 C   0  0  0  0  0  0  0  0  0  0  0  0
   21.6989   70.5556   -2.0969 O   0  0  0  0  0  0  0  0  0  0  0  0
   21.8248   69.3999    0.6672 O   0  0  0  0  0  0  0  0  0  0  0  0
   23.2990   71.6814    0.9076 O   0  0  0  0  0  0  0  0  0  0  0  0
   21.2233   70.6161    0.2228 C   0  0  1  0  0  0  0  0  0  0  0  0
   22.2890   71.6483   -0.0791 C   0  0  2  0  0  0  0  0  0  0  0  0
   20.6218   70.3672   -1.1536 C   0  0  1  0  0  0  0  0  0  0  0  0
   22.8059   71.1822   -1.4295 C   0  0  2  0  0  0  0  0  0  0  0  0
   22.2161   69.5342    1.5450 H   0  0  0  0  0  0  0  0  0  0  0  0
   22.9200   71.9844    1.7481 H   0  0  0  0  0  0  0  0  0  0  0  0
   25.1245   71.0717   -3.0383 O   0  0  0  0  0  0  0  0  0  0  0  0
   24.5467   75.4086   -4.4880 O   0  0  0  0  0  0  0  0  0  0  0  0
   23.2843   72.2680   -2.2376 N   0  0  0  0  0  0  0  0  0  0  0  0
   24.8350   73.2322   -3.7580 N   0  0  0  0  0  0  0  0  0  0  0  0
   24.4599   72.1092   -3.0089 C   0  0  0  0  0  0  0  0  0  0  0  0
   22.5912   73.4722   -2.2621 C   0  0  0  0  0  0  0  0  0  0  0  0
   22.9611   74.5337   -2.9812 C   0  0  0  0  0  0  0  0  0  0  0  0
   24.1788   74.4511   -3.8142 C   0  0  0  0  0  0  0  0  0  0  0  0
   25.6515   73.1463   -4.3015 H   0  0  0  0  0  0  0  0  0  0  0  0
   19.7541   73.7137   -4.5006 O   0  0  0  0  0  0  0  0  0  0  0  0
   20.2916   73.0855   -5.8899 P   0  0  2  0  0  0  0  0  0  0  0  0
   21.5596   72.1925   -5.4260 O   0  0  0  0  0  0  0  0  0  0  0  0
   20.6067   74.1053   -6.9457 O   0  0  0  0  0  0  0  0  0  0  0  0
   19.1682   72.0082   -6.3137 O   0  0  0  0  0  0  0  0  0  0  0  0
   18.8259   69.7910   -5.5550 O   0  0  0  0  0  0  0  0  0  0  0  0
   17.5374   69.5471   -9.4727 O   0  0  0  0  0  0  0  0  0  0  0  0
   19.9562   71.0407   -8.7995 O   0  0  0  0  0  0  0  0  0  0  0  0
   15.6042   69.6259   -7.3030 O   0  0  0  0  0  0  0  0  0  0  0  0
   17.7656   70.1785   -8.2128 C   0  0  2  0  0  0  0  0  0  0  0  0
   19.2631   70.1788   -7.9043 C   0  0  2  0  0  0  0  0  0  0  0  0
   17.0023   69.3922   -7.1446 C   0  0  1  0  0  0  0  0  0  0  0  0
   19.5259   70.6361   -6.4688 C   0  0  1  0  0  0  0  0  0  0  0  0
   17.4122   69.8204   -5.7385 C   0  0  1  0  0  0  0  0  0  0  0  0
   18.0129   70.0296  -10.1672 H   0  0  0  0  0  0  0  0  0  0  0  0
   19.7936   70.7565   -9.7123 H   0  0  0  0  0  0  0  0  0  0  0  0
   15.3304   69.3577   -8.1941 H   0  0  0  0  0  0  0  0  0  0  0  0
   16.6568   67.6437   -5.2994 O   0  0  0  0  0  0  0  0  0  0  0  0
   16.7780   69.0789   -3.5318 O   0  0  0  0  0  0  0  0  0  0  0  0
   16.9215   68.8417   -4.7218 C   0  0  0  0  0  0  0  0  0  0  0  0
  1  4  1  0
  1 24  1  0
  1  2  1  1
  1  3  2  0
 25 28  1  0
 25 24  1  0
 25 26  1  1
 25 27  2  0
  6 11  1  0
  6 12  1  0
 29 36  1  0
 29 37  1  0
  9  7  1  6
  7 13  1  0
 10  8  1  1
  8 14  1  0
  4  5  1  0
 36 28  1  6
 33 30  1  6
 30 38  1  0
 34 31  1  6
 31 39  1  0
 35 32  1  6
 32 40  1  0
 41 43  1  0
 15 19  2  0
 42 43  2  0
 16 22  2  0
 12 17  1  6
 17 19  1  0
 17 20  1  0
 18 19  1  0
 18 22  1  0
 18 23  1  0
  9 10  1  0
  9 11  1  0
 10 12  1  0
 11  5  1  6
 33 34  1  0
 33 35  1  0
 34 36  1  0
 35 37  1  0
 37 43  1  1
 20 21  2  0
 21 22  1  0
M  CHG  3   2  -1  26  -1  41  -1
M  END
>  <COMPND>  (58) 
    udp_gluA.pdb 

>  <AUTHOR>  (58) 
    GENERATED BY OPEN BABEL 3.1.1

>  <MASTER>  (58) 
        0    0    0    0    0    0    0    0   56    0   56    0

>  <minimizedAffinity>  (58) 
-7.66299

>  <CNNscore>  (58) 
0.4327132404

>  <CNNaffinity>  (58) 
4.0884008408

>  <CNN_VS>  (58) 
1.7691051960

>  <CNNaffinity_variance>  (58) 
0.6709932685

$$$$
59
     RDKit          3D

 43 45  0  0  0  0  0  0  0  0999 V2000
   17.7840   69.9771   -2.1172 P   0  0  2  0  0  0  0  0  0  0  0  0
   17.1463   68.5684   -1.6401 O   0  0  0  0  0  0  0  0  0  0  0  0
   17.0258   71.1962   -1.6803 O   0  0  0  0  0  0  0  0  0  0  0  0
   17.9678   69.7991   -3.7149 O   0  0  0  0  0  0  0  0  0  0  0  0
   17.0789   68.9410   -4.4062 C   0  0  0  0  0  0  0  0  0  0  0  0
   16.8971   71.0317   -5.5783 O   0  0  0  0  0  0  0  0  0  0  0  0
   14.8818   69.6632   -7.3268 O   0  0  0  0  0  0  0  0  0  0  0  0
   17.1329   69.6194   -8.8653 O   0  0  0  0  0  0  0  0  0  0  0  0
   16.0687   69.1366   -6.7330 C   0  0  1  0  0  0  0  0  0  0  0  0
   17.2920   69.6503   -7.4623 C   0  0  2  0  0  0  0  0  0  0  0  0
   16.2275   69.7713   -5.3581 C   0  0  1  0  0  0  0  0  0  0  0  0
   17.4130   71.0637   -6.9185 C   0  0  2  0  0  0  0  0  0  0  0  0
   14.7591   69.2722   -8.2064 H   0  0  0  0  0  0  0  0  0  0  0  0
   17.0607   68.6982   -9.1622 H   0  0  0  0  0  0  0  0  0  0  0  0
   18.1762   73.7640   -6.5989 O   0  0  0  0  0  0  0  0  0  0  0  0
   22.6589   72.7114   -6.8032 O   0  0  0  0  0  0  0  0  0  0  0  0
   18.7726   71.5232   -6.8846 N   0  0  0  0  0  0  0  0  0  0  0  0
   20.4081   73.2373   -6.7020 N   0  0  0  0  0  0  0  0  0  0  0  0
   19.0480   72.9013   -6.7198 C   0  0  0  0  0  0  0  0  0  0  0  0
   19.8155   70.6138   -7.0120 C   0  0  0  0  0  0  0  0  0  0  0  0
   21.1070   70.9491   -6.9930 C   0  0  0  0  0  0  0  0  0  0  0  0
   21.4806   72.3689   -6.8255 C   0  0  0  0  0  0  0  0  0  0  0  0
   20.6246   74.1912   -6.5904 H   0  0  0  0  0  0  0  0  0  0  0  0
   19.3011   69.8941   -1.5655 O   0  0  0  0  0  0  0  0  0  0  0  0
   20.2029   70.9767   -0.7727 P   0  0  2  0  0  0  0  0  0  0  0  0
   21.0608   70.0636    0.2524 O   0  0  0  0  0  0  0  0  0  0  0  0
   19.4141   72.0712   -0.1141 O   0  0  0  0  0  0  0  0  0  0  0  0
   21.2788   71.4882   -1.8604 O   0  0  0  0  0  0  0  0  0  0  0  0
   23.1066   72.4003   -0.6619 O   0  0  0  0  0  0  0  0  0  0  0  0
   24.3409   72.8855   -4.5746 O   0  0  0  0  0  0  0  0  0  0  0  0
   21.5767   73.4461   -3.8134 O   0  0  0  0  0  0  0  0  0  0  0  0
   25.4853   70.7757   -2.9344 O   0  0  0  0  0  0  0  0  0  0  0  0
   23.6624   72.2494   -3.4915 C   0  0  2  0  0  0  0  0  0  0  0  0
   22.6369   73.2128   -2.8935 C   0  0  2  0  0  0  0  0  0  0  0  0
   24.7061   71.8637   -2.4409 C   0  0  1  0  0  0  0  0  0  0  0  0
   22.0549   72.6550   -1.5939 C   0  0  1  0  0  0  0  0  0  0  0  0
   24.0478   71.4378   -1.1318 C   0  0  1  0  0  0  0  0  0  0  0  0
   23.6975   73.1396   -5.2548 H   0  0  0  0  0  0  0  0  0  0  0  0
   21.9388   73.7999   -4.6405 H   0  0  0  0  0  0  0  0  0  0  0  0
   25.9096   71.0336   -3.7676 H   0  0  0  0  0  0  0  0  0  0  0  0
   25.8733   70.3149   -0.1787 O   0  0  0  0  0  0  0  0  0  0  0  0
   25.1300   72.1866    0.8905 O   0  0  0  0  0  0  0  0  0  0  0  0
   25.0516   71.3829   -0.0265 C   0  0  0  0  0  0  0  0  0  0  0  0
  1  4  1  0
  1 24  1  0
  1  2  1  1
  1  3  2  0
 25 28  1  0
 25 24  1  0
 25 26  1  1
 25 27  2  0
  6 11  1  0
  6 12  1  0
 29 36  1  0
 29 37  1  0
  9  7  1  6
  7 13  1  0
 10  8  1  6
  8 14  1  0
  4  5  1  0
 36 28  1  6
 33 30  1  6
 30 38  1  0
 34 31  1  6
 31 39  1  0
 35 32  1  6
 32 40  1  0
 41 43  1  0
 15 19  2  0
 42 43  2  0
 16 22  2  0
 12 17  1  1
 17 19  1  0
 17 20  1  0
 18 19  1  0
 18 22  1  0
 18 23  1  0
  9 10  1  0
  9 11  1  0
 10 12  1  0
 11  5  1  1
 33 34  1  0
 33 35  1  0
 34 36  1  0
 35 37  1  0
 37 43  1  1
 20 21  2  0
 21 22  1  0
M  CHG  3   2  -1  26  -1  41  -1
M  END
>  <COMPND>  (59) 
    udp_gluA.pdb 

>  <AUTHOR>  (59) 
    GENERATED BY OPEN BABEL 3.1.1

>  <MASTER>  (59) 
        0    0    0    0    0    0    0    0   56    0   56    0

>  <minimizedAffinity>  (59) 
-8.39148

>  <CNNscore>  (59) 
0.4043181241

>  <CNNaffinity>  (59) 
4.1044082642

>  <CNN_VS>  (59) 
1.6594866514

>  <CNNaffinity_variance>  (59) 
0.9873050451

$$$$
60
     RDKit          3D

 43 45  0  0  0  0  0  0  0  0999 V2000
   24.0159   73.3584   -3.9443 P   0  0  2  0  0  0  0  0  0  0  0  0
   24.1050   74.0759   -5.3922 O   0  0  0  0  0  0  0  0  0  0  0  0
   25.0905   72.3473   -3.6711 O   0  0  0  0  0  0  0  0  0  0  0  0
   22.4970   72.8049   -3.8779 O   0  0  0  0  0  0  0  0  0  0  0  0
   21.5355   73.3614   -4.7555 C   0  0  0  0  0  0  0  0  0  0  0  0
   21.0363   71.1354   -5.5127 O   0  0  0  0  0  0  0  0  0  0  0  0
   20.5640   72.3587   -8.2093 O   0  0  0  0  0  0  0  0  0  0  0  0
   18.0313   72.0177   -7.2578 O   0  0  0  0  0  0  0  0  0  0  0  0
   20.2761   72.8869   -6.9145 C   0  0  1  0  0  0  0  0  0  0  0  0
   19.0725   72.1876   -6.3189 C   0  0  2  0  0  0  0  0  0  0  0  0
   21.3926   72.4570   -5.9729 C   0  0  1  0  0  0  0  0  0  0  0  0
   19.6691   70.8672   -5.8620 C   0  0  2  0  0  0  0  0  0  0  0  0
   19.8641   72.6203   -8.8286 H   0  0  0  0  0  0  0  0  0  0  0  0
   17.6848   72.8865   -7.5170 H   0  0  0  0  0  0  0  0  0  0  0  0
   17.2606   69.3970   -5.9806 O   0  0  0  0  0  0  0  0  0  0  0  0
   17.1607   68.8425   -1.4060 O   0  0  0  0  0  0  0  0  0  0  0  0
   18.9920   70.3269   -4.7173 N   0  0  0  0  0  0  0  0  0  0  0  0
   17.2126   69.1231   -3.7020 N   0  0  0  0  0  0  0  0  0  0  0  0
   17.7876   69.6037   -4.8858 C   0  0  0  0  0  0  0  0  0  0  0  0
   19.5215   70.5137   -3.4462 C   0  0  0  0  0  0  0  0  0  0  0  0
   18.9621   70.0495   -2.3271 C   0  0  0  0  0  0  0  0  0  0  0  0
   17.7013   69.2840   -2.4155 C   0  0  0  0  0  0  0  0  0  0  0  0
   16.3724   68.6182   -3.7938 H   0  0  0  0  0  0  0  0  0  0  0  0
   23.9920   74.6090   -2.9205 O   0  0  0  0  0  0  0  0  0  0  0  0
   24.0840   74.6620   -1.3073 P   0  0  2  0  0  0  0  0  0  0  0  0
   23.0299   75.8261   -0.9148 O   0  0  0  0  0  0  0  0  0  0  0  0
   25.4714   74.8794   -0.7764 O   0  0  0  0  0  0  0  0  0  0  0  0
   23.3842   73.2953   -0.8123 O   0  0  0  0  0  0  0  0  0  0  0  0
   24.4243   72.5642    1.1859 O   0  0  0  0  0  0  0  0  0  0  0  0
   21.6835   69.5472    0.5121 O   0  0  0  0  0  0  0  0  0  0  0  0
   23.2302   70.6640   -1.7003 O   0  0  0  0  0  0  0  0  0  0  0  0
   21.1839   71.5399    2.5689 O   0  0  0  0  0  0  0  0  0  0  0  0
   22.1855   70.8832    0.4784 C   0  0  2  0  0  0  0  0  0  0  0  0
   23.4862   70.9210   -0.3244 C   0  0  2  0  0  0  0  0  0  0  0  0
   22.4367   71.3305    1.9202 C   0  0  1  0  0  0  0  0  0  0  0  0
   24.1720   72.2814   -0.1910 C   0  0  1  0  0  0  0  0  0  0  0  0
   23.2346   72.6304    1.9691 C   0  0  1  0  0  0  0  0  0  0  0  0
   21.5164   69.2414   -0.3933 H   0  0  0  0  0  0  0  0  0  0  0  0
   22.7948   69.8024   -1.7923 H   0  0  0  0  0  0  0  0  0  0  0  0
   20.6661   70.7201    2.5446 H   0  0  0  0  0  0  0  0  0  0  0  0
   22.7305   73.0510    4.2209 O   0  0  0  0  0  0  0  0  0  0  0  0
   24.9357   72.9295    3.6539 O   0  0  0  0  0  0  0  0  0  0  0  0
   23.7538   72.8825    3.3472 C   0  0  0  0  0  0  0  0  0  0  0  0
  1  4  1  0
  1 24  1  0
  1  2  1  6
  1  3  2  0
 25 28  1  0
 25 24  1  0
 25 26  1  1
 25 27  2  0
  6 11  1  0
  6 12  1  0
 29 36  1  0
 29 37  1  0
  9  7  1  6
  7 13  1  0
 10  8  1  6
  8 14  1  0
  4  5  1  0
 36 28  1  1
 33 30  1  1
 30 38  1  0
 34 31  1  6
 31 39  1  0
 35 32  1  6
 32 40  1  0
 41 43  1  0
 15 19  2  0
 42 43  2  0
 16 22  2  0
 12 17  1  1
 17 19  1  0
 17 20  1  0
 18 19  1  0
 18 22  1  0
 18 23  1  0
  9 10  1  0
  9 11  1  0
 10 12  1  0
 11  5  1  1
 33 34  1  0
 33 35  1  0
 34 36  1  0
 35 37  1  0
 37 43  1  1
 20 21  2  0
 21 22  1  0
M  CHG  3   2  -1  26  -1  41  -1
M  END
>  <COMPND>  (60) 
    udp_gluA.pdb 

>  <AUTHOR>  (60) 
    GENERATED BY OPEN BABEL 3.1.1

>  <MASTER>  (60) 
        0    0    0    0    0    0    0    0   56    0   56    0

>  <minimizedAffinity>  (60) 
-7.71875

>  <CNNscore>  (60) 
0.4008176029

>  <CNNaffinity>  (60) 
4.0217733383

>  <CNN_VS>  (60) 
1.6119976044

>  <CNNaffinity_variance>  (60) 
0.4698646069

$$$$
61
     RDKit          3D

 43 45  0  0  0  0  0  0  0  0999 V2000
   22.2297   70.7014   -0.0536 P   0  0  2  0  0  0  0  0  0  0  0  0
   21.0426   71.6089   -0.6749 O   0  0  0  0  0  0  0  0  0  0  0  0
   21.7779   69.4300    0.6030 O   0  0  0  0  0  0  0  0  0  0  0  0
   23.0491   71.7276    0.8916 O   0  0  0  0  0  0  0  0  0  0  0  0
   23.6642   71.2235    2.0630 C   0  0  0  0  0  0  0  0  0  0  0  0
   24.2263   72.0709    4.2409 O   0  0  0  0  0  0  0  0  0  0  0  0
   21.8939   73.9273    3.9162 O   0  0  0  0  0  0  0  0  0  0  0  0
   24.0198   75.5350    3.3400 O   0  0  0  0  0  0  0  0  0  0  0  0
   22.8198   73.4593    2.9352 C   0  0  1  0  0  0  0  0  0  0  0  0
   24.1568   74.1491    3.1052 C   0  0  2  0  0  0  0  0  0  0  0  0
   23.1632   72.0132    3.2654 C   0  0  1  0  0  0  0  0  0  0  0  0
   24.7441   73.4097    4.2953 C   0  0  2  0  0  0  0  0  0  0  0  0
   21.6596   74.8496    3.7261 H   0  0  0  0  0  0  0  0  0  0  0  0
   23.6423   75.9604    2.5535 H   0  0  0  0  0  0  0  0  0  0  0  0
   26.4442   75.2228    5.6366 O   0  0  0  0  0  0  0  0  0  0  0  0
   30.2313   73.1146    4.0690 O   0  0  0  0  0  0  0  0  0  0  0  0
   26.1782   73.3577    4.2548 N   0  0  0  0  0  0  0  0  0  0  0  0
   28.3288   74.1717    4.8537 N   0  0  0  0  0  0  0  0  0  0  0  0
   26.9396   74.3165    4.9641 C   0  0  0  0  0  0  0  0  0  0  0  0
   26.8158   72.3650    3.5206 C   0  0  0  0  0  0  0  0  0  0  0  0
   28.1409   72.2397    3.4250 C   0  0  0  0  0  0  0  0  0  0  0  0
   29.0089   73.2016    4.1354 C   0  0  0  0  0  0  0  0  0  0  0  0
   28.8799   74.8288    5.3372 H   0  0  0  0  0  0  0  0  0  0  0  0
   23.2236   70.4933   -1.3114 O   0  0  0  0  0  0  0  0  0  0  0  0
   23.8386   71.5541   -2.3650 P   0  0  2  0  0  0  0  0  0  0  0  0
   25.2561   70.8886   -2.7751 O   0  0  0  0  0  0  0  0  0  0  0  0
   23.9431   72.9559   -1.8375 O   0  0  0  0  0  0  0  0  0  0  0  0
   22.9206   71.4014   -3.6827 O   0  0  0  0  0  0  0  0  0  0  0  0
   22.3141   73.2452   -5.0397 O   0  0  0  0  0  0  0  0  0  0  0  0
   19.3935   70.4895   -6.0114 O   0  0  0  0  0  0  0  0  0  0  0  0
   20.2332   70.8407   -3.2355 O   0  0  0  0  0  0  0  0  0  0  0  0
   21.5805   71.0092   -7.8548 O   0  0  0  0  0  0  0  0  0  0  0  0
   20.6941   70.9253   -5.6159 C   0  0  2  0  0  0  0  0  0  0  0  0
   20.5956   71.7062   -4.3052 C   0  0  2  0  0  0  0  0  0  0  0  0
   21.2519   71.8180   -6.7268 C   0  0  1  0  0  0  0  0  0  0  0  0
   21.9257   72.3824   -3.9700 C   0  0  1  0  0  0  0  0  0  0  0  0
   22.5087   72.5541   -6.2716 C   0  0  1  0  0  0  0  0  0  0  0  0
   19.0189   69.9205   -5.3206 H   0  0  0  0  0  0  0  0  0  0  0  0
   19.3902   70.4081   -3.4416 H   0  0  0  0  0  0  0  0  0  0  0  0
   20.7890   70.5351   -8.1543 H   0  0  0  0  0  0  0  0  0  0  0  0
   21.8664   73.8217   -8.1377 O   0  0  0  0  0  0  0  0  0  0  0  0
   23.8785   74.3171   -7.1863 O   0  0  0  0  0  0  0  0  0  0  0  0
   22.8530   73.6538   -7.2225 C   0  0  0  0  0  0  0  0  0  0  0  0
  1  4  1  0
  1 24  1  0
  1  2  1  6
  1  3  2  0
 25 28  1  0
 25 24  1  0
 25 26  1  6
 25 27  2  0
  6 11  1  0
  6 12  1  0
 29 36  1  0
 29 37  1  0
  9  7  1  1
  7 13  1  0
 10  8  1  1
  8 14  1  0
  4  5  1  0
 36 28  1  6
 33 30  1  6
 30 38  1  0
 34 31  1  1
 31 39  1  0
 35 32  1  6
 32 40  1  0
 41 43  1  0
 15 19  2  0
 42 43  2  0
 16 22  2  0
 12 17  1  6
 17 19  1  0
 17 20  1  0
 18 19  1  0
 18 22  1  0
 18 23  1  0
  9 10  1  0
  9 11  1  0
 10 12  1  0
 11  5  1  6
 33 34  1  0
 33 35  1  0
 34 36  1  0
 35 37  1  0
 37 43  1  6
 20 21  2  0
 21 22  1  0
M  CHG  3   2  -1  26  -1  41  -1
M  END
>  <COMPND>  (61) 
    udp_gluA.pdb 

>  <AUTHOR>  (61) 
    GENERATED BY OPEN BABEL 3.1.1

>  <MASTER>  (61) 
        0    0    0    0    0    0    0    0   56    0   56    0

>  <minimizedAffinity>  (61) 
-6.70237

>  <CNNscore>  (61) 
0.7010840774

>  <CNNaffinity>  (61) 
4.2923312187

>  <CNN_VS>  (61) 
3.0092849731

>  <CNNaffinity_variance>  (61) 
0.0234482028

$$$$
62
     RDKit          3D

 43 45  0  0  0  0  0  0  0  0999 V2000
   24.1936   72.1008   -3.0862 P   0  0  2  0  0  0  0  0  0  0  0  0
   24.9443   73.4072   -3.6766 O   0  0  0  0  0  0  0  0  0  0  0  0
   25.0853   70.9232   -2.8214 O   0  0  0  0  0  0  0  0  0  0  0  0
   22.9824   71.8447   -4.1281 O   0  0  0  0  0  0  0  0  0  0  0  0
   22.3951   72.9616   -4.7699 C   0  0  0  0  0  0  0  0  0  0  0  0
   21.2840   71.2631   -6.0575 O   0  0  0  0  0  0  0  0  0  0  0  0
   20.9448   73.3552   -8.1787 O   0  0  0  0  0  0  0  0  0  0  0  0
   18.4875   73.3003   -6.9976 O   0  0  0  0  0  0  0  0  0  0  0  0
   20.8996   73.4928   -6.7583 C   0  0  1  0  0  0  0  0  0  0  0  0
   19.6039   72.9259   -6.2177 C   0  0  2  0  0  0  0  0  0  0  0  0
   21.9341   72.5483   -6.1616 C   0  0  1  0  0  0  0  0  0  0  0  0
   19.8719   71.4312   -6.2598 C   0  0  2  0  0  0  0  0  0  0  0  0
   20.2922   73.9492   -8.5823 H   0  0  0  0  0  0  0  0  0  0  0  0
   18.3587   74.2604   -6.9377 H   0  0  0  0  0  0  0  0  0  0  0  0
   17.7212   69.6638   -6.7371 O   0  0  0  0  0  0  0  0  0  0  0  0
   17.2346   68.7523   -2.2453 O   0  0  0  0  0  0  0  0  0  0  0  0
   19.1650   70.7186   -5.2334 N   0  0  0  0  0  0  0  0  0  0  0  0
   17.4803   69.2123   -4.4994 N   0  0  0  0  0  0  0  0  0  0  0  0
   18.0990   69.8551   -5.5797 C   0  0  0  0  0  0  0  0  0  0  0  0
   19.5301   70.8771   -3.9020 C   0  0  0  0  0  0  0  0  0  0  0  0
   18.9309   70.2575   -2.8832 C   0  0  0  0  0  0  0  0  0  0  0  0
   17.8073   69.3384   -3.1590 C   0  0  0  0  0  0  0  0  0  0  0  0
   16.7340   68.6075   -4.7155 H   0  0  0  0  0  0  0  0  0  0  0  0
   23.4343   72.6774   -1.7809 O   0  0  0  0  0  0  0  0  0  0  0  0
   22.1645   72.1120   -0.9553 P   0  0  2  0  0  0  0  0  0  0  0  0
   22.1854   70.5272   -1.2844 O   0  0  0  0  0  0  0  0  0  0  0  0
   20.8666   72.7937   -1.2788 O   0  0  0  0  0  0  0  0  0  0  0  0
   22.6056   72.2122    0.5932 O   0  0  0  0  0  0  0  0  0  0  0  0
   22.0526   73.9102    2.1489 O   0  0  0  0  0  0  0  0  0  0  0  0
   25.7014   72.6097    3.5854 O   0  0  0  0  0  0  0  0  0  0  0  0
   25.2805   72.9642    0.7163 O   0  0  0  0  0  0  0  0  0  0  0  0
   23.2434   71.8339    4.9298 O   0  0  0  0  0  0  0  0  0  0  0  0
   24.4350   72.4824    2.9387 C   0  0  2  0  0  0  0  0  0  0  0  0
   24.3838   73.4122    1.7262 C   0  0  2  0  0  0  0  0  0  0  0  0
   23.3486   72.8625    3.9472 C   0  0  1  0  0  0  0  0  0  0  0  0
   22.9707   73.4759    1.1449 C   0  0  1  0  0  0  0  0  0  0  0  0
   21.9922   73.0293    3.2685 C   0  0  1  0  0  0  0  0  0  0  0  0
   26.4075   72.3732    2.9634 H   0  0  0  0  0  0  0  0  0  0  0  0
   26.1791   72.9212    1.0783 H   0  0  0  0  0  0  0  0  0  0  0  0
   24.1003   71.7176    5.3692 H   0  0  0  0  0  0  0  0  0  0  0  0
   19.7582   73.5949    3.7053 O   0  0  0  0  0  0  0  0  0  0  0  0
   21.3212   74.2916    5.2121 O   0  0  0  0  0  0  0  0  0  0  0  0
   21.0234   73.7104    4.1794 C   0  0  0  0  0  0  0  0  0  0  0  0
  1  4  1  0
  1 24  1  0
  1  2  1  6
  1  3  2  0
 25 28  1  0
 25 24  1  0
 25 26  1  6
 25 27  2  0
  6 11  1  0
  6 12  1  0
 29 36  1  0
 29 37  1  0
  9  7  1  6
  7 13  1  0
 10  8  1  6
  8 14  1  0
  4  5  1  0
 36 28  1  1
 33 30  1  1
 30 38  1  0
 34 31  1  6
 31 39  1  0
 35 32  1  1
 32 40  1  0
 41 43  1  0
 15 19  2  0
 42 43  2  0
 16 22  2  0
 12 17  1  1
 17 19  1  0
 17 20  1  0
 18 19  1  0
 18 22  1  0
 18 23  1  0
  9 10  1  0
  9 11  1  0
 10 12  1  0
 11  5  1  1
 33 34  1  0
 33 35  1  0
 34 36  1  0
 35 37  1  0
 37 43  1  1
 20 21  2  0
 21 22  1  0
M  CHG  3   2  -1  26  -1  41  -1
M  END
>  <COMPND>  (62) 
    udp_gluA.pdb 

>  <AUTHOR>  (62) 
    GENERATED BY OPEN BABEL 3.1.1

>  <MASTER>  (62) 
        0    0    0    0    0    0    0    0   56    0   56    0

>  <minimizedAffinity>  (62) 
-7.03132

>  <CNNscore>  (62) 
0.6903632283

>  <CNNaffinity>  (62) 
4.2899212837

>  <CNN_VS>  (62) 
2.9616038799

>  <CNNaffinity_variance>  (62) 
0.2146612108

$$$$
63
     RDKit          3D

 43 45  0  0  0  0  0  0  0  0999 V2000
   24.1433   72.3327   -3.1324 P   0  0  2  0  0  0  0  0  0  0  0  0
   24.7153   73.6612   -3.8580 O   0  0  0  0  0  0  0  0  0  0  0  0
   25.0910   71.1697   -3.1016 O   0  0  0  0  0  0  0  0  0  0  0  0
   22.7278   72.0662   -3.8696 O   0  0  0  0  0  0  0  0  0  0  0  0
   22.2032   73.0766   -4.7114 C   0  0  0  0  0  0  0  0  0  0  0  0
   21.2376   71.1399   -5.7576 O   0  0  0  0  0  0  0  0  0  0  0  0
   20.7277   72.9047   -8.1277 O   0  0  0  0  0  0  0  0  0  0  0  0
   18.2826   72.8013   -6.9247 O   0  0  0  0  0  0  0  0  0  0  0  0
   20.6702   73.2210   -6.7366 C   0  0  1  0  0  0  0  0  0  0  0  0
   19.4256   72.6242   -6.1144 C   0  0  2  0  0  0  0  0  0  0  0  0
   21.7790   72.4500   -6.0334 C   0  0  1  0  0  0  0  0  0  0  0  0
   19.8165   71.1637   -5.9658 C   0  0  2  0  0  0  0  0  0  0  0  0
   20.0284   73.3857   -8.5981 H   0  0  0  0  0  0  0  0  0  0  0  0
   18.0746   73.7472   -6.9881 H   0  0  0  0  0  0  0  0  0  0  0  0
   17.3217   69.8469   -6.1010 O   0  0  0  0  0  0  0  0  0  0  0  0
   17.4331   68.7853   -1.6172 O   0  0  0  0  0  0  0  0  0  0  0  0
   19.1704   70.5345   -4.8489 N   0  0  0  0  0  0  0  0  0  0  0  0
   17.3791   69.3203   -3.8675 N   0  0  0  0  0  0  0  0  0  0  0  0
   17.9177   69.9002   -5.0236 C   0  0  0  0  0  0  0  0  0  0  0  0
   19.7772   70.5480   -3.5988 C   0  0  0  0  0  0  0  0  0  0  0  0
   19.2515   69.9908   -2.5061 C   0  0  0  0  0  0  0  0  0  0  0  0
   17.9444   69.3085   -2.6026 C   0  0  0  0  0  0  0  0  0  0  0  0
   16.5065   68.8746   -3.9638 H   0  0  0  0  0  0  0  0  0  0  0  0
   23.6981   72.8772   -1.6770 O   0  0  0  0  0  0  0  0  0  0  0  0
   22.7693   72.2118   -0.5332 P   0  0  2  0  0  0  0  0  0  0  0  0
   22.9697   70.6233   -0.7719 O   0  0  0  0  0  0  0  0  0  0  0  0
   21.3385   72.6656   -0.5607 O   0  0  0  0  0  0  0  0  0  0  0  0
   23.5418   72.5163    0.8499 O   0  0  0  0  0  0  0  0  0  0  0  0
   25.1946   71.4245    2.1480 O   0  0  0  0  0  0  0  0  0  0  0  0
   22.5815   72.7532    5.0590 O   0  0  0  0  0  0  0  0  0  0  0  0
   21.5678   71.5919    2.5775 O   0  0  0  0  0  0  0  0  0  0  0  0
   25.1106   74.1220    4.6336 O   0  0  0  0  0  0  0  0  0  0  0  0
   23.2742   72.7967    3.8115 C   0  0  2  0  0  0  0  0  0  0  0  0
   22.9288   71.5538    2.9908 C   0  0  2  0  0  0  0  0  0  0  0  0
   24.7754   72.8402    4.1053 C   0  0  1  0  0  0  0  0  0  0  0  0
   23.8222   71.4492    1.7540 C   0  0  1  0  0  0  0  0  0  0  0  0
   25.5975   72.6032    2.8418 C   0  0  1  0  0  0  0  0  0  0  0  0
   21.6253   72.7250    4.8973 H   0  0  0  0  0  0  0  0  0  0  0  0
   20.9952   71.6585    3.3573 H   0  0  0  0  0  0  0  0  0  0  0  0
   24.5941   74.2853    5.4382 H   0  0  0  0  0  0  0  0  0  0  0  0
   27.5755   71.4774    2.2747 O   0  0  0  0  0  0  0  0  0  0  0  0
   27.6211   72.7834    4.1433 O   0  0  0  0  0  0  0  0  0  0  0  0
   27.0245   72.3207    3.1826 C   0  0  0  0  0  0  0  0  0  0  0  0
  1  4  1  0
  1 24  1  0
  1  2  1  6
  1  3  2  0
 25 28  1  0
 25 24  1  0
 25 26  1  6
 25 27  2  0
  6 11  1  0
  6 12  1  0
 29 36  1  0
 29 37  1  0
  9  7  1  6
  7 13  1  0
 10  8  1  6
  8 14  1  0
  4  5  1  0
 36 28  1  6
 33 30  1  1
 30 38  1  0
 34 31  1  6
 31 39  1  0
 35 32  1  6
 32 40  1  0
 41 43  1  0
 15 19  2  0
 42 43  2  0
 16 22  2  0
 12 17  1  1
 17 19  1  0
 17 20  1  0
 18 19  1  0
 18 22  1  0
 18 23  1  0
  9 10  1  0
  9 11  1  0
 10 12  1  0
 11  5  1  1
 33 34  1  0
 33 35  1  0
 34 36  1  0
 35 37  1  0
 37 43  1  1
 20 21  2  0
 21 22  1  0
M  CHG  3   2  -1  26  -1  41  -1
M  END
>  <COMPND>  (63) 
    udp_gluA.pdb 

>  <AUTHOR>  (63) 
    GENERATED BY OPEN BABEL 3.1.1

>  <MASTER>  (63) 
        0    0    0    0    0    0    0    0   56    0   56    0

>  <minimizedAffinity>  (63) 
-7.83333

>  <CNNscore>  (63) 
0.6512674093

>  <CNNaffinity>  (63) 
4.3038992882

>  <CNN_VS>  (63) 
2.8029892445

>  <CNNaffinity_variance>  (63) 
0.1520941108

$$$$
64
     RDKit          3D

 43 45  0  0  0  0  0  0  0  0999 V2000
   23.3107   71.3444   -2.1957 P   0  0  2  0  0  0  0  0  0  0  0  0
   24.9200   71.2280   -2.3207 O   0  0  0  0  0  0  0  0  0  0  0  0
   22.5451   70.1919   -2.7764 O   0  0  0  0  0  0  0  0  0  0  0  0
   22.9763   72.7977   -2.8235 O   0  0  0  0  0  0  0  0  0  0  0  0
   22.0673   72.8735   -3.9063 C   0  0  0  0  0  0  0  0  0  0  0  0
   22.1536   71.4410   -5.8345 O   0  0  0  0  0  0  0  0  0  0  0  0
   23.8771   73.5482   -7.0918 O   0  0  0  0  0  0  0  0  0  0  0  0
   21.4413   74.0167   -8.2245 O   0  0  0  0  0  0  0  0  0  0  0  0
   22.7646   73.6986   -6.2096 C   0  0  1  0  0  0  0  0  0  0  0  0
   21.4710   73.4194   -6.9451 C   0  0  2  0  0  0  0  0  0  0  0  0
   22.8088   72.5602   -5.1995 C   0  0  1  0  0  0  0  0  0  0  0  0
   21.4654   71.9015   -7.0082 C   0  0  2  0  0  0  0  0  0  0  0  0
   23.8702   74.2644   -7.7465 H   0  0  0  0  0  0  0  0  0  0  0  0
   21.4459   74.9827   -8.1305 H   0  0  0  0  0  0  0  0  0  0  0  0
   20.8378   69.2290   -7.6717 O   0  0  0  0  0  0  0  0  0  0  0  0
   16.3323   69.9269   -6.9952 O   0  0  0  0  0  0  0  0  0  0  0  0
   20.1366   71.3582   -7.0136 N   0  0  0  0  0  0  0  0  0  0  0  0
   18.5943   69.5794   -7.3351 N   0  0  0  0  0  0  0  0  0  0  0  0
   19.9297   70.0026   -7.3624 C   0  0  0  0  0  0  0  0  0  0  0  0
   19.0564   72.1641   -6.6747 C   0  0  0  0  0  0  0  0  0  0  0  0
   17.7892   71.7464   -6.6532 C   0  0  0  0  0  0  0  0  0  0  0  0
   17.4866   70.3436   -7.0054 C   0  0  0  0  0  0  0  0  0  0  0  0
   18.4251   68.6400   -7.5762 H   0  0  0  0  0  0  0  0  0  0  0  0
   23.0854   71.5725   -0.6114 O   0  0  0  0  0  0  0  0  0  0  0  0
   22.9098   70.5150    0.5988 P   0  0  2  0  0  0  0  0  0  0  0  0
   24.3518   69.7822    0.6618 O   0  0  0  0  0  0  0  0  0  0  0  0
   21.7472   69.5793    0.4351 O   0  0  0  0  0  0  0  0  0  0  0  0
   22.8559   71.4230    1.9312 O   0  0  0  0  0  0  0  0  0  0  0  0
   22.1858   73.5718    2.6677 O   0  0  0  0  0  0  0  0  0  0  0  0
   26.0731   73.3826    4.0537 O   0  0  0  0  0  0  0  0  0  0  0  0
   25.4026   72.3992    1.3857 O   0  0  0  0  0  0  0  0  0  0  0  0
   23.8493   73.0503    5.8962 O   0  0  0  0  0  0  0  0  0  0  0  0
   24.7936   72.8662    3.6873 C   0  0  2  0  0  0  0  0  0  0  0  0
   24.5272   73.1593    2.2106 C   0  0  2  0  0  0  0  0  0  0  0  0
   23.7401   73.5473    4.5637 C   0  0  1  0  0  0  0  0  0  0  0  0
   23.0809   72.8286    1.8395 C   0  0  1  0  0  0  0  0  0  0  0  0
   22.3285   73.2712    4.0542 C   0  0  1  0  0  0  0  0  0  0  0  0
   26.7588   72.9641    3.5096 H   0  0  0  0  0  0  0  0  0  0  0  0
   26.3221   72.6039    1.6160 H   0  0  0  0  0  0  0  0  0  0  0  0
   24.7433   73.2196    6.2323 H   0  0  0  0  0  0  0  0  0  0  0  0
   20.6581   74.8918    3.7633 O   0  0  0  0  0  0  0  0  0  0  0  0
   21.1685   74.2969    5.9045 O   0  0  0  0  0  0  0  0  0  0  0  0
   21.3424   74.1894    4.6998 C   0  0  0  0  0  0  0  0  0  0  0  0
  1  4  1  0
  1 24  1  0
  1  2  1  1
  1  3  2  0
 25 28  1  0
 25 24  1  0
 25 26  1  1
 25 27  2  0
  6 11  1  0
  6 12  1  0
 29 36  1  0
 29 37  1  0
  9  7  1  6
  7 13  1  0
 10  8  1  6
  8 14  1  0
  4  5  1  0
 36 28  1  1
 33 30  1  1
 30 38  1  0
 34 31  1  6
 31 39  1  0
 35 32  1  1
 32 40  1  0
 41 43  1  0
 15 19  2  0
 42 43  2  0
 16 22  2  0
 12 17  1  1
 17 19  1  0
 17 20  1  0
 18 19  1  0
 18 22  1  0
 18 23  1  0
  9 10  1  0
  9 11  1  0
 10 12  1  0
 11  5  1  1
 33 34  1  0
 33 35  1  0
 34 36  1  0
 35 37  1  0
 37 43  1  1
 20 21  2  0
 21 22  1  0
M  CHG  3   2  -1  26  -1  41  -1
M  END
>  <COMPND>  (64) 
    udp_gluA.pdb 

>  <AUTHOR>  (64) 
    GENERATED BY OPEN BABEL 3.1.1

>  <MASTER>  (64) 
        0    0    0    0    0    0    0    0   56    0   56    0

>  <minimizedAffinity>  (64) 
-7.33144

>  <CNNscore>  (64) 
0.6451137662

>  <CNNaffinity>  (64) 
4.3984112740

>  <CNN_VS>  (64) 
2.8374757767

>  <CNNaffinity_variance>  (64) 
0.0638805851

$$$$
65
     RDKit          3D

 43 45  0  0  0  0  0  0  0  0999 V2000
   18.5803   70.0035   -2.6468 P   0  0  2  0  0  0  0  0  0  0  0  0
   17.9727   68.5772   -2.1827 O   0  0  0  0  0  0  0  0  0  0  0  0
   17.8602   71.2045   -2.1076 O   0  0  0  0  0  0  0  0  0  0  0  0
   18.6485   69.8905   -4.2594 O   0  0  0  0  0  0  0  0  0  0  0  0
   17.6267   69.1769   -4.9310 C   0  0  0  0  0  0  0  0  0  0  0  0
   17.6045   71.3766   -5.8997 O   0  0  0  0  0  0  0  0  0  0  0  0
   15.6476   70.2785   -7.8887 O   0  0  0  0  0  0  0  0  0  0  0  0
   17.9865   70.2768   -9.2907 O   0  0  0  0  0  0  0  0  0  0  0  0
   16.7725   69.6422   -7.2818 C   0  0  1  0  0  0  0  0  0  0  0  0
   18.0590   70.1654   -7.8847 C   0  0  2  0  0  0  0  0  0  0  0  0
   16.8712   70.1338   -5.8442 C   0  0  1  0  0  0  0  0  0  0  0  0
   18.2039   71.5128   -7.1980 C   0  0  2  0  0  0  0  0  0  0  0  0
   15.5640   69.9799   -8.8083 H   0  0  0  0  0  0  0  0  0  0  0  0
   17.8952   69.3928   -9.6808 H   0  0  0  0  0  0  0  0  0  0  0  0
   20.3875   69.7227   -7.2619 O   0  0  0  0  0  0  0  0  0  0  0  0
   23.4273   73.1196   -6.5807 O   0  0  0  0  0  0  0  0  0  0  0  0
   19.5765   71.9025   -7.0401 N   0  0  0  0  0  0  0  0  0  0  0  0
   21.8993   71.4161   -6.9215 N   0  0  0  0  0  0  0  0  0  0  0  0
   20.5979   70.9245   -7.0881 C   0  0  0  0  0  0  0  0  0  0  0  0
   19.8995   73.2394   -6.8420 C   0  0  0  0  0  0  0  0  0  0  0  0
   21.1447   73.6929   -6.6849 C   0  0  0  0  0  0  0  0  0  0  0  0
   22.2701   72.7360   -6.7213 C   0  0  0  0  0  0  0  0  0  0  0  0
   22.6272   70.7537   -6.9492 H   0  0  0  0  0  0  0  0  0  0  0  0
   20.1326   69.8964   -2.2090 O   0  0  0  0  0  0  0  0  0  0  0  0
   21.4368   70.7060   -2.7163 P   0  0  2  0  0  0  0  0  0  0  0  0
   20.8158   71.8212   -3.7118 O   0  0  0  0  0  0  0  0  0  0  0  0
   22.4946   69.8416   -3.3389 O   0  0  0  0  0  0  0  0  0  0  0  0
   21.9280   71.5404   -1.4259 O   0  0  0  0  0  0  0  0  0  0  0  0
   24.0608   72.0429   -0.5271 O   0  0  0  0  0  0  0  0  0  0  0  0
   21.8276   71.4368    2.8955 O   0  0  0  0  0  0  0  0  0  0  0  0
   21.5140   69.6697    0.5903 O   0  0  0  0  0  0  0  0  0  0  0  0
   22.5382   74.1337    2.0753 O   0  0  0  0  0  0  0  0  0  0  0  0
   22.0592   71.8331    1.5437 C   0  0  2  0  0  0  0  0  0  0  0  0
   22.5518   70.6323    0.7356 C   0  0  2  0  0  0  0  0  0  0  0  0
   23.1158   72.9401    1.5497 C   0  0  1  0  0  0  0  0  0  0  0  0
   23.0278   71.0647   -0.6520 C   0  0  1  0  0  0  0  0  0  0  0  0
   23.6309   73.2262    0.1422 C   0  0  1  0  0  0  0  0  0  0  0  0
   21.1594   70.7337    2.9165 H   0  0  0  0  0  0  0  0  0  0  0  0
   21.2070   69.3911    1.4670 H   0  0  0  0  0  0  0  0  0  0  0  0
   22.2062   73.9651    2.9709 H   0  0  0  0  0  0  0  0  0  0  0  0
   25.5534   73.8311    1.3421 O   0  0  0  0  0  0  0  0  0  0  0  0
   25.2357   74.8273   -0.6842 O   0  0  0  0  0  0  0  0  0  0  0  0
   24.8734   74.0546    0.1903 C   0  0  0  0  0  0  0  0  0  0  0  0
  1  4  1  0
  1 24  1  0
  1  2  1  1
  1  3  2  0
 25 28  1  0
 25 24  1  0
 25 26  1  6
 25 27  2  0
  6 11  1  0
  6 12  1  0
 29 36  1  0
 29 37  1  0
  9  7  1  6
  7 13  1  0
 10  8  1  6
  8 14  1  0
  4  5  1  0
 36 28  1  6
 33 30  1  1
 30 38  1  0
 34 31  1  6
 31 39  1  0
 35 32  1  6
 32 40  1  0
 41 43  1  0
 15 19  2  0
 42 43  2  0
 16 22  2  0
 12 17  1  1
 17 19  1  0
 17 20  1  0
 18 19  1  0
 18 22  1  0
 18 23  1  0
  9 10  1  0
  9 11  1  0
 10 12  1  0
 11  5  1  1
 33 34  1  0
 33 35  1  0
 34 36  1  0
 35 37  1  0
 37 43  1  1
 20 21  2  0
 21 22  1  0
M  CHG  3   2  -1  26  -1  41  -1
M  END
>  <COMPND>  (65) 
    udp_gluA.pdb 

>  <AUTHOR>  (65) 
    GENERATED BY OPEN BABEL 3.1.1

>  <MASTER>  (65) 
        0    0    0    0    0    0    0    0   56    0   56    0

>  <minimizedAffinity>  (65) 
-7.91224

>  <CNNscore>  (65) 
0.5933076143

>  <CNNaffinity>  (65) 
4.4237885475

>  <CNN_VS>  (65) 
2.6246674061

>  <CNNaffinity_variance>  (65) 
0.2235530913

$$$$
66
     RDKit          3D

 43 45  0  0  0  0  0  0  0  0999 V2000
   23.0450   71.9318   -3.2031 P   0  0  2  0  0  0  0  0  0  0  0  0
   22.5044   70.4065   -3.2187 O   0  0  0  0  0  0  0  0  0  0  0  0
   24.2779   72.1754   -4.0229 O   0  0  0  0  0  0  0  0  0  0  0  0
   23.1670   72.2846   -1.6287 O   0  0  0  0  0  0  0  0  0  0  0  0
   24.2737   71.7773   -0.9059 C   0  0  0  0  0  0  0  0  0  0  0  0
   24.6036   70.7039    1.2193 O   0  0  0  0  0  0  0  0  0  0  0  0
   21.8468   69.5775    0.8686 O   0  0  0  0  0  0  0  0  0  0  0  0
   21.4294   71.6488    2.5925 O   0  0  0  0  0  0  0  0  0  0  0  0
   22.3555   70.8563    0.4886 C   0  0  1  0  0  0  0  0  0  0  0  0
   22.5277   71.7357    1.7090 C   0  0  2  0  0  0  0  0  0  0  0  0
   23.7936   70.6707    0.0242 C   0  0  1  0  0  0  0  0  0  0  0  0
   23.8094   71.1884    2.3138 C   0  0  2  0  0  0  0  0  0  0  0  0
   20.9288   69.6707    1.1692 H   0  0  0  0  0  0  0  0  0  0  0  0
   20.6383   72.0098    2.1614 H   0  0  0  0  0  0  0  0  0  0  0  0
   23.2710   71.9974    4.9656 O   0  0  0  0  0  0  0  0  0  0  0  0
   26.7276   75.0461    4.9310 O   0  0  0  0  0  0  0  0  0  0  0  0
   24.5530   72.1915    3.0221 N   0  0  0  0  0  0  0  0  0  0  0  0
   24.9924   73.5158    4.9455 N   0  0  0  0  0  0  0  0  0  0  0  0
   24.2006   72.5242    4.3515 C   0  0  0  0  0  0  0  0  0  0  0  0
   25.6184   72.8325    2.4016 C   0  0  0  0  0  0  0  0  0  0  0  0
   26.3639   73.7757    2.9807 C   0  0  0  0  0  0  0  0  0  0  0  0
   26.0614   74.1823    4.3687 C   0  0  0  0  0  0  0  0  0  0  0  0
   24.7649   73.7658    5.8702 H   0  0  0  0  0  0  0  0  0  0  0  0
   21.7497   72.7805   -3.6663 O   0  0  0  0  0  0  0  0  0  0  0  0
   20.1851   72.6179   -3.2933 P   0  0  2  0  0  0  0  0  0  0  0  0
   19.6682   74.1484   -3.1905 O   0  0  0  0  0  0  0  0  0  0  0  0
   19.9273   71.7943   -2.0648 O   0  0  0  0  0  0  0  0  0  0  0  0
   19.5010   72.0466   -4.6380 O   0  0  0  0  0  0  0  0  0  0  0  0
   18.5670   69.9051   -5.0266 O   0  0  0  0  0  0  0  0  0  0  0  0
   19.9064   70.9349   -8.7967 O   0  0  0  0  0  0  0  0  0  0  0  0
   21.5436   71.4880   -6.4412 O   0  0  0  0  0  0  0  0  0  0  0  0
   17.0704   71.0620   -8.1705 O   0  0  0  0  0  0  0  0  0  0  0  0
   19.3794   71.1716   -7.4912 C   0  0  2  0  0  0  0  0  0  0  0  0
   20.3740   70.6775   -6.4405 C   0  0  2  0  0  0  0  0  0  0  0  0
   18.0563   70.4122   -7.3704 C   0  0  1  0  0  0  0  0  0  0  0  0
   19.7518   70.7022   -5.0437 C   0  0  1  0  0  0  0  0  0  0  0  0
   17.5653   70.3748   -5.9261 C   0  0  1  0  0  0  0  0  0  0  0  0
   20.7476   71.4078   -8.8966 H   0  0  0  0  0  0  0  0  0  0  0  0
   21.9434   71.4771   -7.3246 H   0  0  0  0  0  0  0  0  0  0  0  0
   17.3708   71.0925   -9.0923 H   0  0  0  0  0  0  0  0  0  0  0  0
   16.6777   68.6119   -4.6588 O   0  0  0  0  0  0  0  0  0  0  0  0
   15.5168   69.2450   -6.5164 O   0  0  0  0  0  0  0  0  0  0  0  0
   16.4711   69.3705   -5.7637 C   0  0  0  0  0  0  0  0  0  0  0  0
  1  4  1  0
  1 24  1  0
  1  2  1  1
  1  3  2  0
 25 28  1  0
 25 24  1  0
 25 26  1  1
 25 27  2  0
  6 11  1  0
  6 12  1  0
 29 36  1  0
 29 37  1  0
  9  7  1  1
  7 13  1  0
 10  8  1  1
  8 14  1  0
  4  5  1  0
 36 28  1  6
 33 30  1  6
 30 38  1  0
 34 31  1  1
 31 39  1  0
 35 32  1  6
 32 40  1  0
 41 43  1  0
 15 19  2  0
 42 43  2  0
 16 22  2  0
 12 17  1  6
 17 19  1  0
 17 20  1  0
 18 19  1  0
 18 22  1  0
 18 23  1  0
  9 10  1  0
  9 11  1  0
 10 12  1  0
 11  5  1  6
 33 34  1  0
 33 35  1  0
 34 36  1  0
 35 37  1  0
 37 43  1  6
 20 21  2  0
 21 22  1  0
M  CHG  3   2  -1  26  -1  41  -1
M  END
>  <COMPND>  (66) 
    udp_gluA.pdb 

>  <AUTHOR>  (66) 
    GENERATED BY OPEN BABEL 3.1.1

>  <MASTER>  (66) 
        0    0    0    0    0    0    0    0   56    0   56    0

>  <minimizedAffinity>  (66) 
-7.64084

>  <CNNscore>  (66) 
0.5871809125

>  <CNNaffinity>  (66) 
4.3582234383

>  <CNN_VS>  (66) 
2.5590655804

>  <CNNaffinity_variance>  (66) 
0.0596188530

$$$$
67
     RDKit          3D

 43 45  0  0  0  0  0  0  0  0999 V2000
   24.1311   71.6918   -2.4685 P   0  0  2  0  0  0  0  0  0  0  0  0
   24.0788   73.1481   -3.1721 O   0  0  0  0  0  0  0  0  0  0  0  0
   25.3546   70.8810   -2.7805 O   0  0  0  0  0  0  0  0  0  0  0  0
   22.7179   71.0147   -2.8713 O   0  0  0  0  0  0  0  0  0  0  0  0
   21.8005   71.7711   -3.6398 C   0  0  0  0  0  0  0  0  0  0  0  0
   19.4334   72.1850   -3.6980 O   0  0  0  0  0  0  0  0  0  0  0  0
   19.4183   71.4302   -0.7960 O   0  0  0  0  0  0  0  0  0  0  0  0
   18.5015   69.1648   -2.0057 O   0  0  0  0  0  0  0  0  0  0  0  0
   20.2016   70.8974   -1.8642 C   0  0  1  0  0  0  0  0  0  0  0  0
   19.3482   70.0151   -2.7505 C   0  0  2  0  0  0  0  0  0  0  0  0
   20.5573   72.0425   -2.8025 C   0  0  1  0  0  0  0  0  0  0  0  0
   18.5775   71.0390   -3.5664 C   0  0  2  0  0  0  0  0  0  0  0  0
   19.1788   70.7169   -0.1832 H   0  0  0  0  0  0  0  0  0  0  0  0
   19.0395   68.5315   -1.5041 H   0  0  0  0  0  0  0  0  0  0  0  0
   16.2854   69.4977   -4.1555 O   0  0  0  0  0  0  0  0  0  0  0  0
   17.3847   69.2376   -8.6241 O   0  0  0  0  0  0  0  0  0  0  0  0
   18.2404   70.5552   -4.8753 N   0  0  0  0  0  0  0  0  0  0  0  0
   16.8356   69.3688   -6.3804 N   0  0  0  0  0  0  0  0  0  0  0  0
   17.0658   69.7891   -5.0638 C   0  0  0  0  0  0  0  0  0  0  0  0
   19.0671   70.8417   -5.9548 C   0  0  0  0  0  0  0  0  0  0  0  0
   18.8345   70.4342   -7.2041 C   0  0  0  0  0  0  0  0  0  0  0  0
   17.6288   69.6280   -7.4864 C   0  0  0  0  0  0  0  0  0  0  0  0
   16.0250   68.8322   -6.5360 H   0  0  0  0  0  0  0  0  0  0  0  0
   23.9346   72.0384   -0.9019 O   0  0  0  0  0  0  0  0  0  0  0  0
   23.9743   71.0914    0.4078 P   0  0  2  0  0  0  0  0  0  0  0  0
   25.5432   70.7181    0.5469 O   0  0  0  0  0  0  0  0  0  0  0  0
   23.0598   69.9029    0.3363 O   0  0  0  0  0  0  0  0  0  0  0  0
   23.6818   72.0879    1.6423 O   0  0  0  0  0  0  0  0  0  0  0  0
   23.5940   71.9843    4.0068 O   0  0  0  0  0  0  0  0  0  0  0  0
   20.1460   74.0839    3.1286 O   0  0  0  0  0  0  0  0  0  0  0  0
   20.9212   71.7709    1.5213 O   0  0  0  0  0  0  0  0  0  0  0  0
   22.4735   75.4739    4.1783 O   0  0  0  0  0  0  0  0  0  0  0  0
   21.4942   73.6544    2.9391 C   0  0  2  0  0  0  0  0  0  0  0  0
   21.5269   72.1369    2.7558 C   0  0  2  0  0  0  0  0  0  0  0  0
   22.2977   74.0584    4.1773 C   0  0  1  0  0  0  0  0  0  0  0  0
   22.9637   71.6138    2.7800 C   0  0  1  0  0  0  0  0  0  0  0  0
   23.6724   73.3962    4.1898 C   0  0  1  0  0  0  0  0  0  0  0  0
   19.6162   73.8379    2.3540 H   0  0  0  0  0  0  0  0  0  0  0  0
   20.0093   72.0999    1.4990 H   0  0  0  0  0  0  0  0  0  0  0  0
   21.6059   75.9075    4.1702 H   0  0  0  0  0  0  0  0  0  0  0  0
   25.6522   73.3439    5.4464 O   0  0  0  0  0  0  0  0  0  0  0  0
   23.7153   73.7635    6.5740 O   0  0  0  0  0  0  0  0  0  0  0  0
   24.3112   73.5252    5.5342 C   0  0  0  0  0  0  0  0  0  0  0  0
  1  4  1  0
  1 24  1  0
  1  2  1  6
  1  3  2  0
 25 28  1  0
 25 24  1  0
 25 26  1  1
 25 27  2  0
  6 11  1  0
  6 12  1  0
 29 36  1  0
 29 37  1  0
  9  7  1  1
  7 13  1  0
 10  8  1  1
  8 14  1  0
  4  5  1  0
 36 28  1  6
 33 30  1  1
 30 38  1  0
 34 31  1  6
 31 39  1  0
 35 32  1  6
 32 40  1  0
 41 43  1  0
 15 19  2  0
 42 43  2  0
 16 22  2  0
 12 17  1  6
 17 19  1  0
 17 20  1  0
 18 19  1  0
 18 22  1  0
 18 23  1  0
  9 10  1  0
  9 11  1  0
 10 12  1  0
 11  5  1  6
 33 34  1  0
 33 35  1  0
 34 36  1  0
 35 37  1  0
 37 43  1  1
 20 21  2  0
 21 22  1  0
M  CHG  3   2  -1  26  -1  41  -1
M  END
>  <COMPND>  (67) 
    udp_gluA.pdb 

>  <AUTHOR>  (67) 
    GENERATED BY OPEN BABEL 3.1.1

>  <MASTER>  (67) 
        0    0    0    0    0    0    0    0   56    0   56    0

>  <minimizedAffinity>  (67) 
-7.12278

>  <CNNscore>  (67) 
0.5345478058

>  <CNNaffinity>  (67) 
4.4265708923

>  <CNN_VS>  (67) 
2.3662137985

>  <CNNaffinity_variance>  (67) 
0.0030626783

$$$$
68
     RDKit          3D

 43 45  0  0  0  0  0  0  0  0999 V2000
   23.6010   72.0981   -1.9204 P   0  0  2  0  0  0  0  0  0  0  0  0
   22.2587   72.9577   -1.6404 O   0  0  0  0  0  0  0  0  0  0  0  0
   23.5657   70.6856   -1.4151 O   0  0  0  0  0  0  0  0  0  0  0  0
   24.7871   73.0264   -1.3293 O   0  0  0  0  0  0  0  0  0  0  0  0
   24.5001   73.8722   -0.2308 C   0  0  0  0  0  0  0  0  0  0  0  0
   24.7518   73.9349    2.1588 O   0  0  0  0  0  0  0  0  0  0  0  0
   26.7502   71.7251    1.8198 O   0  0  0  0  0  0  0  0  0  0  0  0
   24.5172   70.3891    2.6352 O   0  0  0  0  0  0  0  0  0  0  0  0
   25.5426   71.9699    1.0984 C   0  0  1  0  0  0  0  0  0  0  0  0
   24.3423   71.6107    1.9484 C   0  0  2  0  0  0  0  0  0  0  0  0
   25.3846   73.4765    0.9445 C   0  0  1  0  0  0  0  0  0  0  0  0
   24.2528   72.8018    2.8872 C   0  0  2  0  0  0  0  0  0  0  0  0
   26.8728   70.7689    1.9307 H   0  0  0  0  0  0  0  0  0  0  0  0
   24.5681   69.6622    1.9941 H   0  0  0  0  0  0  0  0  0  0  0  0
   23.4329   73.0340    5.5798 O   0  0  0  0  0  0  0  0  0  0  0  0
   19.0585   73.8361    4.3693 O   0  0  0  0  0  0  0  0  0  0  0  0
   22.9058   73.0710    3.3040 N   0  0  0  0  0  0  0  0  0  0  0  0
   21.2548   73.4323    4.9744 N   0  0  0  0  0  0  0  0  0  0  0  0
   22.5993   73.1680    4.6820 C   0  0  0  0  0  0  0  0  0  0  0  0
   21.9058   73.2373    2.3536 C   0  0  0  0  0  0  0  0  0  0  0  0
   20.6287   73.4889    2.6476 C   0  0  0  0  0  0  0  0  0  0  0  0
   20.2246   73.6049    4.0642 C   0  0  0  0  0  0  0  0  0  0  0  0
   21.0169   73.5023    5.9272 H   0  0  0  0  0  0  0  0  0  0  0  0
   23.7936   72.2367   -3.5193 O   0  0  0  0  0  0  0  0  0  0  0  0
   22.9642   73.0831   -4.6190 P   0  0  2  0  0  0  0  0  0  0  0  0
   23.6218   72.6122   -6.0211 O   0  0  0  0  0  0  0  0  0  0  0  0
   22.9820   74.5675   -4.3952 O   0  0  0  0  0  0  0  0  0  0  0  0
   21.4920   72.4235   -4.6179 O   0  0  0  0  0  0  0  0  0  0  0  0
   20.8866   70.3289   -3.6930 O   0  0  0  0  0  0  0  0  0  0  0  0
   18.0511   70.7878   -6.6623 O   0  0  0  0  0  0  0  0  0  0  0  0
   20.8419   71.4949   -7.1578 O   0  0  0  0  0  0  0  0  0  0  0  0
   17.3290   71.2076   -3.8778 O   0  0  0  0  0  0  0  0  0  0  0  0
   18.9605   71.2209   -5.6507 C   0  0  2  0  0  0  0  0  0  0  0  0
   20.3789   70.7828   -6.0162 C   0  0  2  0  0  0  0  0  0  0  0  0
   18.5319   70.5857   -4.3261 C   0  0  1  0  0  0  0  0  0  0  0  0
   21.3428   71.0246   -4.8537 C   0  0  1  0  0  0  0  0  0  0  0  0
   19.6015   70.7616   -3.2521 C   0  0  1  0  0  0  0  0  0  0  0  0
   18.3037   71.1790   -7.5135 H   0  0  0  0  0  0  0  0  0  0  0  0
   20.2348   71.3462   -7.8992 H   0  0  0  0  0  0  0  0  0  0  0  0
   16.6401   71.1029   -4.5525 H   0  0  0  0  0  0  0  0  0  0  0  0
   20.3667   69.9016   -1.2085 O   0  0  0  0  0  0  0  0  0  0  0  0
   18.3173   69.2070   -1.9271 O   0  0  0  0  0  0  0  0  0  0  0  0
   19.3307   69.8717   -2.0829 C   0  0  0  0  0  0  0  0  0  0  0  0
  1  4  1  0
  1 24  1  0
  1  2  1  6
  1  3  2  0
 25 28  1  0
 25 24  1  0
 25 26  1  6
 25 27  2  0
  6 11  1  0
  6 12  1  0
 29 36  1  0
 29 37  1  0
  9  7  1  1
  7 13  1  0
 10  8  1  1
  8 14  1  0
  4  5  1  0
 36 28  1  1
 33 30  1  6
 30 38  1  0
 34 31  1  6
 31 39  1  0
 35 32  1  1
 32 40  1  0
 41 43  1  0
 15 19  2  0
 42 43  2  0
 16 22  2  0
 12 17  1  6
 17 19  1  0
 17 20  1  0
 18 19  1  0
 18 22  1  0
 18 23  1  0
  9 10  1  0
  9 11  1  0
 10 12  1  0
 11  5  1  6
 33 34  1  0
 33 35  1  0
 34 36  1  0
 35 37  1  0
 37 43  1  1
 20 21  2  0
 21 22  1  0
M  CHG  3   2  -1  26  -1  41  -1
M  END
>  <COMPND>  (68) 
    udp_gluA.pdb 

>  <AUTHOR>  (68) 
    GENERATED BY OPEN BABEL 3.1.1

>  <MASTER>  (68) 
        0    0    0    0    0    0    0    0   56    0   56    0

>  <minimizedAffinity>  (68) 
-6.63934

>  <CNNscore>  (68) 
0.5308196545

>  <CNNaffinity>  (68) 
4.1284308434

>  <CNN_VS>  (68) 
2.1914522648

>  <CNNaffinity_variance>  (68) 
0.1550442874

$$$$
69
     RDKit          3D

 43 45  0  0  0  0  0  0  0  0999 V2000
   22.6140   75.2329   -2.3025 P   0  0  2  0  0  0  0  0  0  0  0  0
   23.0689   76.0482   -0.9807 O   0  0  0  0  0  0  0  0  0  0  0  0
   22.3872   76.0782   -3.5214 O   0  0  0  0  0  0  0  0  0  0  0  0
   21.3440   74.3629   -1.8045 O   0  0  0  0  0  0  0  0  0  0  0  0
   20.3038   75.0232   -1.1070 C   0  0  0  0  0  0  0  0  0  0  0  0
   20.1405   72.7190   -0.4425 O   0  0  0  0  0  0  0  0  0  0  0  0
   18.0445   73.6217    1.5025 O   0  0  0  0  0  0  0  0  0  0  0  0
   20.2501   73.3562    3.0840 O   0  0  0  0  0  0  0  0  0  0  0  0
   19.2343   74.2895    1.0816 C   0  0  1  0  0  0  0  0  0  0  0  0
   20.4490   73.6457    1.7161 C   0  0  2  0  0  0  0  0  0  0  0  0
   19.4468   73.9846   -0.3949 C   0  0  1  0  0  0  0  0  0  0  0  0
   20.6195   72.3941    0.8721 C   0  0  2  0  0  0  0  0  0  0  0  0
   17.8879   73.8017    2.4431 H   0  0  0  0  0  0  0  0  0  0  0  0
   20.1472   74.1850    3.5783 H   0  0  0  0  0  0  0  0  0  0  0  0
   21.4559   69.7120    0.5832 O   0  0  0  0  0  0  0  0  0  0  0  0
   25.9052   70.9140    0.5289 O   0  0  0  0  0  0  0  0  0  0  0  0
   21.9903   71.9779    0.7800 N   0  0  0  0  0  0  0  0  0  0  0  0
   23.6712   70.3131    0.5575 N   0  0  0  0  0  0  0  0  0  0  0  0
   22.3032   70.6054    0.6367 C   0  0  0  0  0  0  0  0  0  0  0  0
   23.0072   72.9237    0.8300 C   0  0  0  0  0  0  0  0  0  0  0  0
   24.3066   72.6298    0.7530 C   0  0  0  0  0  0  0  0  0  0  0  0
   24.7187   71.2188    0.6031 C   0  0  0  0  0  0  0  0  0  0  0  0
   23.9138   69.3640    0.4595 H   0  0  0  0  0  0  0  0  0  0  0  0
   23.7765   74.1210   -2.4610 O   0  0  0  0  0  0  0  0  0  0  0  0
   23.8681   72.8075   -3.3991 P   0  0  2  0  0  0  0  0  0  0  0  0
   23.2385   71.6430   -2.4674 O   0  0  0  0  0  0  0  0  0  0  0  0
   25.2480   72.5114   -3.9110 O   0  0  0  0  0  0  0  0  0  0  0  0
   22.7644   73.0491   -4.5505 O   0  0  0  0  0  0  0  0  0  0  0  0
   22.3789   71.6909   -6.4521 O   0  0  0  0  0  0  0  0  0  0  0  0
   21.1083   75.3881   -7.7881 O   0  0  0  0  0  0  0  0  0  0  0  0
   23.5492   75.1455   -6.2013 O   0  0  0  0  0  0  0  0  0  0  0  0
   19.1647   73.3520   -7.0618 O   0  0  0  0  0  0  0  0  0  0  0  0
   21.3406   74.3594   -6.8259 C   0  0  2  0  0  0  0  0  0  0  0  0
   22.8360   74.0483   -6.7601 C   0  0  2  0  0  0  0  0  0  0  0  0
   20.5576   73.1188   -7.2616 C   0  0  1  0  0  0  0  0  0  0  0  0
   23.0988   72.8012   -5.9149 C   0  0  1  0  0  0  0  0  0  0  0  0
   20.9670   71.8899   -6.4550 C   0  0  1  0  0  0  0  0  0  0  0  0
   21.5962   76.1867   -7.5320 H   0  0  0  0  0  0  0  0  0  0  0  0
   23.3868   75.9404   -6.7325 H   0  0  0  0  0  0  0  0  0  0  0  0
   18.8912   74.1318   -7.5697 H   0  0  0  0  0  0  0  0  0  0  0  0
   19.0994   70.6614   -7.1652 O   0  0  0  0  0  0  0  0  0  0  0  0
   21.1504   69.7235   -7.5011 O   0  0  0  0  0  0  0  0  0  0  0  0
   20.4535   70.6408   -7.0939 C   0  0  0  0  0  0  0  0  0  0  0  0
  1  4  1  0
  1 24  1  0
  1  2  1  1
  1  3  2  0
 25 28  1  0
 25 24  1  0
 25 26  1  1
 25 27  2  0
  6 11  1  0
  6 12  1  0
 29 36  1  0
 29 37  1  0
  9  7  1  1
  7 13  1  0
 10  8  1  1
  8 14  1  0
  4  5  1  0
 36 28  1  1
 33 30  1  6
 30 38  1  0
 34 31  1  1
 31 39  1  0
 35 32  1  1
 32 40  1  0
 41 43  1  0
 15 19  2  0
 42 43  2  0
 16 22  2  0
 12 17  1  6
 17 19  1  0
 17 20  1  0
 18 19  1  0
 18 22  1  0
 18 23  1  0
  9 10  1  0
  9 11  1  0
 10 12  1  0
 11  5  1  1
 33 34  1  0
 33 35  1  0
 34 36  1  0
 35 37  1  0
 37 43  1  6
 20 21  2  0
 21 22  1  0
M  CHG  3   2  -1  26  -1  41  -1
M  END
>  <COMPND>  (69) 
    udp_gluA.pdb 

>  <AUTHOR>  (69) 
    GENERATED BY OPEN BABEL 3.1.1

>  <MASTER>  (69) 
        0    0    0    0    0    0    0    0   56    0   56    0

>  <minimizedAffinity>  (69) 
-6.33672

>  <CNNscore>  (69) 
0.5067501664

>  <CNNaffinity>  (69) 
4.1083703041

>  <CNN_VS>  (69) 
2.0819172859

>  <CNNaffinity_variance>  (69) 
0.0901605934

$$$$
70
     RDKit          3D

 43 45  0  0  0  0  0  0  0  0999 V2000
   20.6323   75.1422   -2.1242 P   0  0  2  0  0  0  0  0  0  0  0  0
   19.8879   76.2072   -3.0888 O   0  0  0  0  0  0  0  0  0  0  0  0
   21.3213   75.7402   -0.9328 O   0  0  0  0  0  0  0  0  0  0  0  0
   21.5764   74.2990   -3.1319 O   0  0  0  0  0  0  0  0  0  0  0  0
   20.9718   73.6268   -4.2215 C   0  0  0  0  0  0  0  0  0  0  0  0
   21.4211   71.4993   -5.2459 O   0  0  0  0  0  0  0  0  0  0  0  0
   23.7860   72.8249   -6.5270 O   0  0  0  0  0  0  0  0  0  0  0  0
   21.9526   72.7974   -8.5454 O   0  0  0  0  0  0  0  0  0  0  0  0
   22.4936   73.3611   -6.2429 C   0  0  1  0  0  0  0  0  0  0  0  0
   21.4728   72.8127   -7.2172 C   0  0  2  0  0  0  0  0  0  0  0  0
   22.0209   72.7720   -4.9209 C   0  0  1  0  0  0  0  0  0  0  0  0
   21.2297   71.4175   -6.6672 C   0  0  2  0  0  0  0  0  0  0  0  0
   24.1090   73.1869   -7.3675 H   0  0  0  0  0  0  0  0  0  0  0  0
   22.0912   73.7086   -8.8496 H   0  0  0  0  0  0  0  0  0  0  0  0
   20.6057   68.8061   -7.5433 O   0  0  0  0  0  0  0  0  0  0  0  0
   16.0907   69.7259   -7.6554 O   0  0  0  0  0  0  0  0  0  0  0  0
   19.8994   70.9479   -6.9330 N   0  0  0  0  0  0  0  0  0  0  0  0
   18.3576   69.2670   -7.5992 N   0  0  0  0  0  0  0  0  0  0  0  0
   19.6945   69.6176   -7.3694 C   0  0  0  0  0  0  0  0  0  0  0  0
   18.8155   71.7999   -6.7595 C   0  0  0  0  0  0  0  0  0  0  0  0
   17.5468   71.4513   -6.9825 C   0  0  0  0  0  0  0  0  0  0  0  0
   17.2464   70.0793   -7.4415 C   0  0  0  0  0  0  0  0  0  0  0  0
   18.1902   68.3465   -7.9057 H   0  0  0  0  0  0  0  0  0  0  0  0
   19.4558   74.0934   -1.7654 O   0  0  0  0  0  0  0  0  0  0  0  0
   19.2737   73.0911   -0.5100 P   0  0  2  0  0  0  0  0  0  0  0  0
   18.7331   71.7297   -1.1990 O   0  0  0  0  0  0  0  0  0  0  0  0
   18.3912   73.6247    0.5810 O   0  0  0  0  0  0  0  0  0  0  0  0
   20.7780   72.7418   -0.0437 O   0  0  0  0  0  0  0  0  0  0  0  0
   21.9775   70.9598   -1.0410 O   0  0  0  0  0  0  0  0  0  0  0  0
   24.0829   71.5306    2.4675 O   0  0  0  0  0  0  0  0  0  0  0  0
   21.1624   71.6028    2.4645 O   0  0  0  0  0  0  0  0  0  0  0  0
   25.1696   72.4778   -0.0569 O   0  0  0  0  0  0  0  0  0  0  0  0
   23.2913   71.9191    1.3448 C   0  0  2  0  0  0  0  0  0  0  0  0
   21.9612   71.1657    1.3712 C   0  0  2  0  0  0  0  0  0  0  0  0
   24.0722   71.5761    0.0742 C   0  0  1  0  0  0  0  0  0  0  0  0
   21.1854   71.3796    0.0707 C   0  0  1  0  0  0  0  0  0  0  0  0
   23.1939   71.6929   -1.1681 C   0  0  1  0  0  0  0  0  0  0  0  0
   23.6067   71.7390    3.2868 H   0  0  0  0  0  0  0  0  0  0  0  0
   21.6486   71.4703    3.2930 H   0  0  0  0  0  0  0  0  0  0  0  0
   25.7365   72.4135    0.7276 H   0  0  0  0  0  0  0  0  0  0  0  0
   23.0191   70.1515   -2.9274 O   0  0  0  0  0  0  0  0  0  0  0  0
   24.9826   71.2950   -2.7376 O   0  0  0  0  0  0  0  0  0  0  0  0
   23.8518   71.0496   -2.3453 C   0  0  0  0  0  0  0  0  0  0  0  0
  1  4  1  0
  1 24  1  0
  1  2  1  6
  1  3  2  0
 25 28  1  0
 25 24  1  0
 25 26  1  6
 25 27  2  0
  6 11  1  0
  6 12  1  0
 29 36  1  0
 29 37  1  0
  9  7  1  6
  7 13  1  0
 10  8  1  6
  8 14  1  0
  4  5  1  0
 36 28  1  6
 33 30  1  1
 30 38  1  0
 34 31  1  1
 31 39  1  0
 35 32  1  6
 32 40  1  0
 41 43  1  0
 15 19  2  0
 42 43  2  0
 16 22  2  0
 12 17  1  1
 17 19  1  0
 17 20  1  0
 18 19  1  0
 18 22  1  0
 18 23  1  0
  9 10  1  0
  9 11  1  0
 10 12  1  0
 11  5  1  6
 33 34  1  0
 33 35  1  0
 34 36  1  0
 35 37  1  0
 37 43  1  6
 20 21  2  0
 21 22  1  0
M  CHG  3   2  -1  26  -1  41  -1
M  END
>  <COMPND>  (70) 
    udp_gluA.pdb 

>  <AUTHOR>  (70) 
    GENERATED BY OPEN BABEL 3.1.1

>  <MASTER>  (70) 
        0    0    0    0    0    0    0    0   56    0   56    0

>  <minimizedAffinity>  (70) 
-6.72958

>  <CNNscore>  (70) 
0.4842068851

>  <CNNaffinity>  (70) 
4.1844439507

>  <CNN_VS>  (70) 
2.0261366367

>  <CNNaffinity_variance>  (70) 
0.2459855825

$$$$
71
     RDKit          3D

 43 45  0  0  0  0  0  0  0  0999 V2000
   21.1181   70.4360   -1.0893 P   0  0  2  0  0  0  0  0  0  0  0  0
   21.6491   69.6248   -2.3850 O   0  0  0  0  0  0  0  0  0  0  0  0
   21.1961   69.6822    0.2059 O   0  0  0  0  0  0  0  0  0  0  0  0
   19.6420   70.9372   -1.5227 O   0  0  0  0  0  0  0  0  0  0  0  0
   18.6287   69.9677   -1.7169 C   0  0  0  0  0  0  0  0  0  0  0  0
   17.6095   71.5032   -3.2600 O   0  0  0  0  0  0  0  0  0  0  0  0
   14.9818   70.3731   -2.3603 O   0  0  0  0  0  0  0  0  0  0  0  0
   15.3931   69.1043   -4.7387 O   0  0  0  0  0  0  0  0  0  0  0  0
   16.2351   69.7133   -2.5405 C   0  0  1  0  0  0  0  0  0  0  0  0
   16.5267   69.5359   -4.0155 C   0  0  2  0  0  0  0  0  0  0  0  0
   17.3369   70.6722   -2.1109 C   0  0  1  0  0  0  0  0  0  0  0  0
   16.9810   70.9289   -4.4169 C   0  0  2  0  0  0  0  0  0  0  0  0
   14.2622   69.7798   -2.6282 H   0  0  0  0  0  0  0  0  0  0  0  0
   15.1436   68.2129   -4.4470 H   0  0  0  0  0  0  0  0  0  0  0  0
   16.2786   71.0653   -7.1490 O   0  0  0  0  0  0  0  0  0  0  0  0
   20.6851   70.8373   -8.4812 O   0  0  0  0  0  0  0  0  0  0  0  0
   17.9246   70.9072   -5.4985 N   0  0  0  0  0  0  0  0  0  0  0  0
   18.4739   70.9506   -7.8100 N   0  0  0  0  0  0  0  0  0  0  0  0
   17.4675   70.9807   -6.8356 C   0  0  0  0  0  0  0  0  0  0  0  0
   19.2850   70.8156   -5.2304 C   0  0  0  0  0  0  0  0  0  0  0  0
   20.2324   70.7880   -6.1698 C   0  0  0  0  0  0  0  0  0  0  0  0
   19.8391   70.8597   -7.5923 C   0  0  0  0  0  0  0  0  0  0  0  0
   18.1799   70.9985   -8.7484 H   0  0  0  0  0  0  0  0  0  0  0  0
   21.9903   71.7963   -1.1302 O   0  0  0  0  0  0  0  0  0  0  0  0
   23.5553   72.0633   -0.8249 P   0  0  2  0  0  0  0  0  0  0  0  0
   23.8464   73.4636   -1.5830 O   0  0  0  0  0  0  0  0  0  0  0  0
   24.4628   70.9390   -1.2326 O   0  0  0  0  0  0  0  0  0  0  0  0
   23.6090   72.4314    0.7449 O   0  0  0  0  0  0  0  0  0  0  0  0
   25.3059   71.5129    2.1183 O   0  0  0  0  0  0  0  0  0  0  0  0
   22.5413   72.7649    4.9214 O   0  0  0  0  0  0  0  0  0  0  0  0
   21.6676   71.4368    2.4705 O   0  0  0  0  0  0  0  0  0  0  0  0
   24.9759   74.2936    4.4892 O   0  0  0  0  0  0  0  0  0  0  0  0
   23.2566   72.8086    3.6868 C   0  0  2  0  0  0  0  0  0  0  0  0
   23.0184   71.5127    2.9112 C   0  0  2  0  0  0  0  0  0  0  0  0
   24.7441   72.9712    4.0075 C   0  0  1  0  0  0  0  0  0  0  0  0
   23.9442   71.4237    1.6972 C   0  0  1  0  0  0  0  0  0  0  0  0
   25.6087   72.7440    2.7709 C   0  0  1  0  0  0  0  0  0  0  0  0
   21.5933   72.6618    4.7426 H   0  0  0  0  0  0  0  0  0  0  0  0
   21.0746   71.4929    3.2357 H   0  0  0  0  0  0  0  0  0  0  0  0
   24.4313   74.4511    5.2763 H   0  0  0  0  0  0  0  0  0  0  0  0
   27.5659   71.4662    2.5757 O   0  0  0  0  0  0  0  0  0  0  0  0
   27.6700   73.3364    3.8759 O   0  0  0  0  0  0  0  0  0  0  0  0
   27.0442   72.5782    3.1504 C   0  0  0  0  0  0  0  0  0  0  0  0
  1  4  1  0
  1 24  1  0
  1  2  1  6
  1  3  2  0
 25 28  1  0
 25 24  1  0
 25 26  1  6
 25 27  2  0
  6 11  1  0
  6 12  1  0
 29 36  1  0
 29 37  1  0
  9  7  1  6
  7 13  1  0
 10  8  1  6
  8 14  1  0
  4  5  1  0
 36 28  1  6
 33 30  1  1
 30 38  1  0
 34 31  1  6
 31 39  1  0
 35 32  1  6
 32 40  1  0
 41 43  1  0
 15 19  2  0
 42 43  2  0
 16 22  2  0
 12 17  1  6
 17 19  1  0
 17 20  1  0
 18 19  1  0
 18 22  1  0
 18 23  1  0
  9 10  1  0
  9 11  1  0
 10 12  1  0
 11  5  1  6
 33 34  1  0
 33 35  1  0
 34 36  1  0
 35 37  1  0
 37 43  1  1
 20 21  2  0
 21 22  1  0
M  CHG  3   2  -1  26  -1  41  -1
M  END
>  <COMPND>  (71) 
    udp_gluA.pdb 

>  <AUTHOR>  (71) 
    GENERATED BY OPEN BABEL 3.1.1

>  <MASTER>  (71) 
        0    0    0    0    0    0    0    0   56    0   56    0

>  <minimizedAffinity>  (71) 
-7.40690

>  <CNNscore>  (71) 
0.4490082860

>  <CNNaffinity>  (71) 
4.2878847122

>  <CNN_VS>  (71) 
1.9252957106

>  <CNNaffinity_variance>  (71) 
0.0299433712

$$$$
72
     RDKit          3D

 43 45  0  0  0  0  0  0  0  0999 V2000
   22.2731   73.2687   -5.5494 P   0  0  2  0  0  0  0  0  0  0  0  0
   23.6909   72.5546   -5.8638 O   0  0  0  0  0  0  0  0  0  0  0  0
   22.0467   74.5692   -6.2631 O   0  0  0  0  0  0  0  0  0  0  0  0
   22.2217   73.3358   -3.9336 O   0  0  0  0  0  0  0  0  0  0  0  0
   21.1349   74.0031   -3.3189 C   0  0  0  0  0  0  0  0  0  0  0  0
   20.9235   71.8290   -2.3157 O   0  0  0  0  0  0  0  0  0  0  0  0
   18.1755   72.6878   -1.4776 O   0  0  0  0  0  0  0  0  0  0  0  0
   19.6228   73.0042    0.8118 O   0  0  0  0  0  0  0  0  0  0  0  0
   19.3754   73.4568   -1.5644 C   0  0  1  0  0  0  0  0  0  0  0  0
   20.3045   73.1093   -0.4206 C   0  0  2  0  0  0  0  0  0  0  0  0
   20.1609   72.9668   -2.7732 C   0  0  1  0  0  0  0  0  0  0  0  0
   20.8889   71.7845   -0.8804 C   0  0  2  0  0  0  0  0  0  0  0  0
   17.6567   72.9827   -0.7124 H   0  0  0  0  0  0  0  0  0  0  0  0
   19.2698   73.8732    1.0610 H   0  0  0  0  0  0  0  0  0  0  0  0
   21.7088   69.5029    0.5683 O   0  0  0  0  0  0  0  0  0  0  0  0
   26.0228   71.0774    0.9610 O   0  0  0  0  0  0  0  0  0  0  0  0
   22.2205   71.5725   -0.3876 N   0  0  0  0  0  0  0  0  0  0  0  0
   23.8564   70.2898    0.7634 N   0  0  0  0  0  0  0  0  0  0  0  0
   22.5282   70.3919    0.3290 C   0  0  0  0  0  0  0  0  0  0  0  0
   23.2048   72.5261   -0.6167 C   0  0  0  0  0  0  0  0  0  0  0  0
   24.4665   72.4147   -0.1965 C   0  0  0  0  0  0  0  0  0  0  0  0
   24.8705   71.2117    0.5605 C   0  0  0  0  0  0  0  0  0  0  0  0
   24.0941   69.4774    1.2663 H   0  0  0  0  0  0  0  0  0  0  0  0
   21.1989   72.1127   -5.8995 O   0  0  0  0  0  0  0  0  0  0  0  0
   20.6995   71.5226   -7.3194 P   0  0  2  0  0  0  0  0  0  0  0  0
   21.3843   70.0568   -7.3722 O   0  0  0  0  0  0  0  0  0  0  0  0
   21.0196   72.3975   -8.4967 O   0  0  0  0  0  0  0  0  0  0  0  0
   19.1269   71.2300   -7.1106 O   0  0  0  0  0  0  0  0  0  0  0  0
   18.3826   69.5069   -5.6663 O   0  0  0  0  0  0  0  0  0  0  0  0
   15.0460   70.1292   -8.0218 O   0  0  0  0  0  0  0  0  0  0  0  0
   17.7128   70.0841   -9.2138 O   0  0  0  0  0  0  0  0  0  0  0  0
   15.1190   71.1427   -5.2981 O   0  0  0  0  0  0  0  0  0  0  0  0
   16.2399   70.4960   -7.3304 C   0  0  2  0  0  0  0  0  0  0  0  0
   17.4173   69.6895   -7.8790 C   0  0  2  0  0  0  0  0  0  0  0  0
   16.0364   70.1965   -5.8435 C   0  0  1  0  0  0  0  0  0  0  0  0
   18.6638   69.8842   -7.0146 C   0  0  1  0  0  0  0  0  0  0  0  0
   17.3495   70.2894   -5.0717 C   0  0  1  0  0  0  0  0  0  0  0  0
   15.1519   70.3106   -8.9689 H   0  0  0  0  0  0  0  0  0  0  0  0
   16.9261   69.9634   -9.7678 H   0  0  0  0  0  0  0  0  0  0  0  0
   14.2790   71.0939   -5.7807 H   0  0  0  0  0  0  0  0  0  0  0  0
   16.7440   70.5989   -2.8269 O   0  0  0  0  0  0  0  0  0  0  0  0
   17.4748   68.5251   -3.4307 O   0  0  0  0  0  0  0  0  0  0  0  0
   17.2101   69.6841   -3.7128 C   0  0  0  0  0  0  0  0  0  0  0  0
  1  4  1  0
  1 24  1  0
  1  2  1  1
  1  3  2  0
 25 28  1  0
 25 24  1  0
 25 26  1  6
 25 27  2  0
  6 11  1  0
  6 12  1  0
 29 36  1  0
 29 37  1  0
  9  7  1  1
  7 13  1  0
 10  8  1  1
  8 14  1  0
  4  5  1  0
 36 28  1  1
 33 30  1  6
 30 38  1  0
 34 31  1  6
 31 39  1  0
 35 32  1  1
 32 40  1  0
 41 43  1  0
 15 19  2  0
 42 43  2  0
 16 22  2  0
 12 17  1  1
 17 19  1  0
 17 20  1  0
 18 19  1  0
 18 22  1  0
 18 23  1  0
  9 10  1  0
  9 11  1  0
 10 12  1  0
 11  5  1  1
 33 34  1  0
 33 35  1  0
 34 36  1  0
 35 37  1  0
 37 43  1  1
 20 21  2  0
 21 22  1  0
M  CHG  3   2  -1  26  -1  41  -1
M  END
>  <COMPND>  (72) 
    udp_gluA.pdb 

>  <AUTHOR>  (72) 
    GENERATED BY OPEN BABEL 3.1.1

>  <MASTER>  (72) 
        0    0    0    0    0    0    0    0   56    0   56    0

>  <minimizedAffinity>  (72) 
-8.06563

>  <CNNscore>  (72) 
0.4343273044

>  <CNNaffinity>  (72) 
4.3632726669

>  <CNN_VS>  (72) 
1.8950884342

>  <CNNaffinity_variance>  (72) 
0.2341717780

$$$$
73
     RDKit          3D

 43 45  0  0  0  0  0  0  0  0999 V2000
   19.1073   73.9354   -3.0241 P   0  0  2  0  0  0  0  0  0  0  0  0
   18.0796   75.1754   -2.8660 O   0  0  0  0  0  0  0  0  0  0  0  0
   18.5233   72.5861   -2.7238 O   0  0  0  0  0  0  0  0  0  0  0  0
   20.3790   74.3672   -2.1217 O   0  0  0  0  0  0  0  0  0  0  0  0
   20.6761   73.6074   -0.9646 C   0  0  0  0  0  0  0  0  0  0  0  0
   22.8181   72.7330   -0.3125 O   0  0  0  0  0  0  0  0  0  0  0  0
   22.1712   70.3693   -2.0405 O   0  0  0  0  0  0  0  0  0  0  0  0
   21.6364   69.4389    0.4663 O   0  0  0  0  0  0  0  0  0  0  0  0
   21.3038   71.1555   -1.2232 C   0  0  1  0  0  0  0  0  0  0  0  0
   21.5217   70.8280    0.2388 C   0  0  2  0  0  0  0  0  0  0  0  0
   21.7712   72.6026   -1.2986 C   0  0  1  0  0  0  0  0  0  0  0  0
   22.8074   71.5783    0.5418 C   0  0  2  0  0  0  0  0  0  0  0  0
   21.8923   69.4404   -2.0083 H   0  0  0  0  0  0  0  0  0  0  0  0
   20.7925   69.0066    0.2594 H   0  0  0  0  0  0  0  0  0  0  0  0
   24.6338   70.5569    2.4385 O   0  0  0  0  0  0  0  0  0  0  0  0
   23.0013   73.3035    5.7604 O   0  0  0  0  0  0  0  0  0  0  0  0
   22.8814   72.0087    1.9094 N   0  0  0  0  0  0  0  0  0  0  0  0
   23.8183   71.9251    4.0915 N   0  0  0  0  0  0  0  0  0  0  0  0
   23.8353   71.4312    2.7804 C   0  0  0  0  0  0  0  0  0  0  0  0
   22.0174   72.9925    2.3746 C   0  0  0  0  0  0  0  0  0  0  0  0
   22.0132   73.4531    3.6270 C   0  0  0  0  0  0  0  0  0  0  0  0
   22.9780   72.9018    4.6010 C   0  0  0  0  0  0  0  0  0  0  0  0
   24.4721   71.5368    4.7169 H   0  0  0  0  0  0  0  0  0  0  0  0
   19.6572   74.1101   -4.5341 O   0  0  0  0  0  0  0  0  0  0  0  0
   20.3683   73.0567   -5.5333 P   0  0  2  0  0  0  0  0  0  0  0  0
   21.3547   72.2265   -4.5546 O   0  0  0  0  0  0  0  0  0  0  0  0
   21.0535   73.6899   -6.7095 O   0  0  0  0  0  0  0  0  0  0  0  0
   19.2036   72.0100   -5.9208 O   0  0  0  0  0  0  0  0  0  0  0  0
   18.7089   69.7319   -5.5027 O   0  0  0  0  0  0  0  0  0  0  0  0
   17.8977   70.0407   -9.5418 O   0  0  0  0  0  0  0  0  0  0  0  0
   20.2587   71.3300   -8.4028 O   0  0  0  0  0  0  0  0  0  0  0  0
   15.7191   69.9299   -7.6202 O   0  0  0  0  0  0  0  0  0  0  0  0
   17.9896   70.4975   -8.1924 C   0  0  2  0  0  0  0  0  0  0  0  0
   19.4381   70.3933   -7.7144 C   0  0  2  0  0  0  0  0  0  0  0  0
   17.0806   69.6171   -7.3320 C   0  0  1  0  0  0  0  0  0  0  0  0
   19.5382   70.6540   -6.2108 C   0  0  1  0  0  0  0  0  0  0  0  0
   17.3292   69.8461   -5.8440 C   0  0  1  0  0  0  0  0  0  0  0  0
   18.4673   70.5855  -10.1074 H   0  0  0  0  0  0  0  0  0  0  0  0
   20.1998   71.1706   -9.3575 H   0  0  0  0  0  0  0  0  0  0  0  0
   15.5477   69.7885   -8.5644 H   0  0  0  0  0  0  0  0  0  0  0  0
   17.2450   68.7150   -3.7910 O   0  0  0  0  0  0  0  0  0  0  0  0
   15.7929   68.0365   -5.4127 O   0  0  0  0  0  0  0  0  0  0  0  0
   16.6914   68.7695   -5.0277 C   0  0  0  0  0  0  0  0  0  0  0  0
  1  4  1  0
  1 24  1  0
  1  2  1  6
  1  3  2  0
 25 28  1  0
 25 24  1  0
 25 26  1  1
 25 27  2  0
  6 11  1  0
  6 12  1  0
 29 36  1  0
 29 37  1  0
  9  7  1  6
  7 13  1  0
 10  8  1  6
  8 14  1  0
  4  5  1  0
 36 28  1  6
 33 30  1  6
 30 38  1  0
 34 31  1  6
 31 39  1  0
 35 32  1  1
 32 40  1  0
 41 43  1  0
 15 19  2  0
 42 43  2  0
 16 22  2  0
 12 17  1  1
 17 19  1  0
 17 20  1  0
 18 19  1  0
 18 22  1  0
 18 23  1  0
  9 10  1  0
  9 11  1  0
 10 12  1  0
 11  5  1  1
 33 34  1  0
 33 35  1  0
 34 36  1  0
 35 37  1  0
 37 43  1  1
 20 21  2  0
 21 22  1  0
M  CHG  3   2  -1  26  -1  41  -1
M  END
>  <COMPND>  (73) 
    udp_gluA.pdb 

>  <AUTHOR>  (73) 
    GENERATED BY OPEN BABEL 3.1.1

>  <MASTER>  (73) 
        0    0    0    0    0    0    0    0   56    0   56    0

>  <minimizedAffinity>  (73) 
-7.29572

>  <CNNscore>  (73) 
0.4307851195

>  <CNNaffinity>  (73) 
4.1869535446

>  <CNN_VS>  (73) 
1.8036773205

>  <CNNaffinity_variance>  (73) 
0.1709102094

$$$$
74
     RDKit          3D

 43 45  0  0  0  0  0  0  0  0999 V2000
   22.5563   72.0920   -3.1918 P   0  0  2  0  0  0  0  0  0  0  0  0
   23.0898   70.5696   -3.3202 O   0  0  0  0  0  0  0  0  0  0  0  0
   23.4938   73.1385   -3.7190 O   0  0  0  0  0  0  0  0  0  0  0  0
   22.1529   72.2321   -1.6312 O   0  0  0  0  0  0  0  0  0  0  0  0
   22.9396   73.0674   -0.8018 C   0  0  0  0  0  0  0  0  0  0  0  0
   25.0747   73.2654    0.2845 O   0  0  0  0  0  0  0  0  0  0  0  0
   25.4046   70.3314   -0.2394 O   0  0  0  0  0  0  0  0  0  0  0  0
   24.6730   70.3892    2.3870 O   0  0  0  0  0  0  0  0  0  0  0  0
   24.2245   71.0627    0.0941 C   0  0  1  0  0  0  0  0  0  0  0  0
   24.2432   71.4487    1.5579 C   0  0  2  0  0  0  0  0  0  0  0  0
   24.3021   72.4187   -0.5940 C   0  0  1  0  0  0  0  0  0  0  0  0
   25.2072   72.6227    1.5623 C   0  0  2  0  0  0  0  0  0  0  0  0
   25.3778   69.4610    0.1890 H   0  0  0  0  0  0  0  0  0  0  0  0
   24.0259   69.6668    2.3501 H   0  0  0  0  0  0  0  0  0  0  0  0
   26.6970   72.9082    3.9446 O   0  0  0  0  0  0  0  0  0  0  0  0
   23.9705   76.3020    5.4586 O   0  0  0  0  0  0  0  0  0  0  0  0
   24.9088   73.5730    2.5961 N   0  0  0  0  0  0  0  0  0  0  0  0
   25.3371   74.5975    4.6968 N   0  0  0  0  0  0  0  0  0  0  0  0
   25.7202   73.6349    3.7536 C   0  0  0  0  0  0  0  0  0  0  0  0
   23.8248   74.4313    2.4573 C   0  0  0  0  0  0  0  0  0  0  0  0
   23.4721   75.3438    3.3649 C   0  0  0  0  0  0  0  0  0  0  0  0
   24.2672   75.4729    4.6037 C   0  0  0  0  0  0  0  0  0  0  0  0
   25.8857   74.6580    5.5121 H   0  0  0  0  0  0  0  0  0  0  0  0
   21.1216   72.0377   -3.9345 O   0  0  0  0  0  0  0  0  0  0  0  0
   20.6101   72.7224   -5.3068 P   0  0  2  0  0  0  0  0  0  0  0  0
   21.6673   72.1811   -6.4066 O   0  0  0  0  0  0  0  0  0  0  0  0
   20.4952   74.2180   -5.2432 O   0  0  0  0  0  0  0  0  0  0  0  0
   19.2324   71.9593   -5.6562 O   0  0  0  0  0  0  0  0  0  0  0  0
   18.4461   69.9556   -4.6683 O   0  0  0  0  0  0  0  0  0  0  0  0
   16.6370   69.8291   -8.3803 O   0  0  0  0  0  0  0  0  0  0  0  0
   19.4200   70.6775   -8.1175 O   0  0  0  0  0  0  0  0  0  0  0  0
   15.0864   70.5343   -6.0247 O   0  0  0  0  0  0  0  0  0  0  0  0
   17.1792   70.4511   -7.2155 C   0  0  2  0  0  0  0  0  0  0  0  0
   18.6557   70.0793   -7.0770 C   0  0  2  0  0  0  0  0  0  0  0  0
   16.3892   69.9541   -6.0027 C   0  0  1  0  0  0  0  0  0  0  0  0
   19.2104   70.5348   -5.7266 C   0  0  1  0  0  0  0  0  0  0  0  0
   17.0737   70.3415   -4.6951 C   0  0  1  0  0  0  0  0  0  0  0  0
   17.1235   70.1299   -9.1640 H   0  0  0  0  0  0  0  0  0  0  0  0
   19.0734   70.3930   -8.9773 H   0  0  0  0  0  0  0  0  0  0  0  0
   14.6399   70.2955   -6.8520 H   0  0  0  0  0  0  0  0  0  0  0  0
   17.3461   68.6226   -3.1227 O   0  0  0  0  0  0  0  0  0  0  0  0
   15.3944   69.7992   -3.0497 O   0  0  0  0  0  0  0  0  0  0  0  0
   16.4900   69.5851   -3.5464 C   0  0  0  0  0  0  0  0  0  0  0  0
  1  4  1  0
  1 24  1  0
  1  2  1  1
  1  3  2  0
 25 28  1  0
 25 24  1  0
 25 26  1  6
 25 27  2  0
  6 11  1  0
  6 12  1  0
 29 36  1  0
 29 37  1  0
  9  7  1  1
  7 13  1  0
 10  8  1  1
  8 14  1  0
  4  5  1  0
 36 28  1  6
 33 30  1  6
 30 38  1  0
 34 31  1  6
 31 39  1  0
 35 32  1  1
 32 40  1  0
 41 43  1  0
 15 19  2  0
 42 43  2  0
 16 22  2  0
 12 17  1  1
 17 19  1  0
 17 20  1  0
 18 19  1  0
 18 22  1  0
 18 23  1  0
  9 10  1  0
  9 11  1  0
 10 12  1  0
 11  5  1  1
 33 34  1  0
 33 35  1  0
 34 36  1  0
 35 37  1  0
 37 43  1  1
 20 21  2  0
 21 22  1  0
M  CHG  3   2  -1  26  -1  41  -1
M  END
>  <COMPND>  (74) 
    udp_gluA.pdb 

>  <AUTHOR>  (74) 
    GENERATED BY OPEN BABEL 3.1.1

>  <MASTER>  (74) 
        0    0    0    0    0    0    0    0   56    0   56    0

>  <minimizedAffinity>  (74) 
-6.70979

>  <CNNscore>  (74) 
0.4290501773

>  <CNNaffinity>  (74) 
4.3021783829

>  <CNN_VS>  (74) 
1.8458503485

>  <CNNaffinity_variance>  (74) 
0.2208074033

$$$$
75
     RDKit          3D

 43 45  0  0  0  0  0  0  0  0999 V2000
   17.2846   70.1016   -2.2636 P   0  0  2  0  0  0  0  0  0  0  0  0
   17.3682   68.5795   -1.7205 O   0  0  0  0  0  0  0  0  0  0  0  0
   16.0685   70.8644   -1.8267 O   0  0  0  0  0  0  0  0  0  0  0  0
   17.4854   69.9553   -3.8625 O   0  0  0  0  0  0  0  0  0  0  0  0
   16.5427   69.1945   -4.5954 C   0  0  0  0  0  0  0  0  0  0  0  0
   16.7299   71.2657   -5.8007 O   0  0  0  0  0  0  0  0  0  0  0  0
   14.8690   70.0482   -7.8122 O   0  0  0  0  0  0  0  0  0  0  0  0
   17.3048   69.7631   -9.0047 O   0  0  0  0  0  0  0  0  0  0  0  0
   15.9027   69.4287   -7.0465 C   0  0  1  0  0  0  0  0  0  0  0  0
   17.2615   69.8113   -7.5939 C   0  0  2  0  0  0  0  0  0  0  0  0
   15.9199   70.0774   -5.6691 C   0  0  1  0  0  0  0  0  0  0  0  0
   17.4349   71.2197   -7.0513 C   0  0  2  0  0  0  0  0  0  0  0  0
   14.8387   69.6501   -8.6967 H   0  0  0  0  0  0  0  0  0  0  0  0
   17.1900   68.8459   -9.3005 H   0  0  0  0  0  0  0  0  0  0  0  0
   18.3889   73.8409   -6.6090 O   0  0  0  0  0  0  0  0  0  0  0  0
   22.7407   72.3819   -6.1877 O   0  0  0  0  0  0  0  0  0  0  0  0
   18.8124   71.5533   -6.8233 N   0  0  0  0  0  0  0  0  0  0  0  0
   20.5555   73.1119   -6.4006 N   0  0  0  0  0  0  0  0  0  0  0  0
   19.1865   72.9014   -6.6119 C   0  0  0  0  0  0  0  0  0  0  0  0
   19.7754   70.5516   -6.8089 C   0  0  0  0  0  0  0  0  0  0  0  0
   21.0766   70.7677   -6.6061 C   0  0  0  0  0  0  0  0  0  0  0  0
   21.5509   72.1484   -6.3780 C   0  0  0  0  0  0  0  0  0  0  0  0
   20.8404   74.0427   -6.2531 H   0  0  0  0  0  0  0  0  0  0  0  0
   18.6890   70.7378   -1.7779 O   0  0  0  0  0  0  0  0  0  0  0  0
   19.1836   72.2744   -1.6881 P   0  0  2  0  0  0  0  0  0  0  0  0
   18.7057   72.7310   -0.2104 O   0  0  0  0  0  0  0  0  0  0  0  0
   18.6795   73.1495   -2.7990 O   0  0  0  0  0  0  0  0  0  0  0  0
   20.7909   72.1816   -1.5857 O   0  0  0  0  0  0  0  0  0  0  0  0
   22.6156   71.1100   -2.6492 O   0  0  0  0  0  0  0  0  0  0  0  0
   23.3524   70.2745    1.3291 O   0  0  0  0  0  0  0  0  0  0  0  0
   20.6398   70.1047    0.2580 O   0  0  0  0  0  0  0  0  0  0  0  0
   24.9112   72.3052   -0.0484 O   0  0  0  0  0  0  0  0  0  0  0  0
   22.8760   71.0452    0.2260 C   0  0  2  0  0  0  0  0  0  0  0  0
   21.8136   70.2498   -0.5331 C   0  0  2  0  0  0  0  0  0  0  0  0
   24.0658   71.3501   -0.6869 C   0  0  1  0  0  0  0  0  0  0  0  0
   21.4465   70.9419   -1.8465 C   0  0  1  0  0  0  0  0  0  0  0  0
   23.6086   71.9216   -2.0259 C   0  0  1  0  0  0  0  0  0  0  0  0
   22.6135   70.0686    1.9231 H   0  0  0  0  0  0  0  0  0  0  0  0
   20.8654   69.6664    1.0932 H   0  0  0  0  0  0  0  0  0  0  0  0
   25.2091   71.9538    0.8052 H   0  0  0  0  0  0  0  0  0  0  0  0
   25.4925   70.7997   -2.8588 O   0  0  0  0  0  0  0  0  0  0  0  0
   24.9259   72.7674   -3.8618 O   0  0  0  0  0  0  0  0  0  0  0  0
   24.7255   71.9066   -3.0182 C   0  0  0  0  0  0  0  0  0  0  0  0
  1  4  1  0
  1 24  1  0
  1  2  1  1
  1  3  2  0
 25 28  1  0
 25 24  1  0
 25 26  1  1
 25 27  2  0
  6 11  1  0
  6 12  1  0
 29 36  1  0
 29 37  1  0
  9  7  1  6
  7 13  1  0
 10  8  1  6
  8 14  1  0
  4  5  1  0
 36 28  1  1
 33 30  1  1
 30 38  1  0
 34 31  1  1
 31 39  1  0
 35 32  1  1
 32 40  1  0
 41 43  1  0
 15 19  2  0
 42 43  2  0
 16 22  2  0
 12 17  1  1
 17 19  1  0
 17 20  1  0
 18 19  1  0
 18 22  1  0
 18 23  1  0
  9 10  1  0
  9 11  1  0
 10 12  1  0
 11  5  1  1
 33 34  1  0
 33 35  1  0
 34 36  1  0
 35 37  1  0
 37 43  1  6
 20 21  2  0
 21 22  1  0
M  CHG  3   2  -1  26  -1  41  -1
M  END
>  <COMPND>  (75) 
    udp_gluA.pdb 

>  <AUTHOR>  (75) 
    GENERATED BY OPEN BABEL 3.1.1

>  <MASTER>  (75) 
        0    0    0    0    0    0    0    0   56    0   56    0

>  <minimizedAffinity>  (75) 
-8.18881

>  <CNNscore>  (75) 
0.4260998070

>  <CNNaffinity>  (75) 
4.3473091125

>  <CNN_VS>  (75) 
1.8523875475

>  <CNNaffinity_variance>  (75) 
0.8897078633

$$$$
76
     RDKit          3D

 43 45  0  0  0  0  0  0  0  0999 V2000
   18.1236   69.9979   -2.4670 P   0  0  2  0  0  0  0  0  0  0  0  0
   17.6780   68.5039   -2.0331 O   0  0  0  0  0  0  0  0  0  0  0  0
   17.2398   71.0968   -1.9542 O   0  0  0  0  0  0  0  0  0  0  0  0
   18.2707   69.9075   -4.0758 O   0  0  0  0  0  0  0  0  0  0  0  0
   17.3400   69.1210   -4.7967 C   0  0  0  0  0  0  0  0  0  0  0  0
   17.2103   71.3045   -5.7932 O   0  0  0  0  0  0  0  0  0  0  0  0
   15.3390   70.0783   -7.7896 O   0  0  0  0  0  0  0  0  0  0  0  0
   17.6907   70.1866   -9.1656 O   0  0  0  0  0  0  0  0  0  0  0  0
   16.4894   69.5112   -7.1624 C   0  0  1  0  0  0  0  0  0  0  0  0
   17.7527   70.0961   -7.7576 C   0  0  2  0  0  0  0  0  0  0  0  0
   16.5447   70.0246   -5.7301 C   0  0  1  0  0  0  0  0  0  0  0  0
   17.8166   71.4575   -7.0864 C   0  0  2  0  0  0  0  0  0  0  0  0
   15.2824   69.7647   -8.7062 H   0  0  0  0  0  0  0  0  0  0  0  0
   17.6518   69.2943   -9.5456 H   0  0  0  0  0  0  0  0  0  0  0  0
   18.5165   74.1153   -6.4365 O   0  0  0  0  0  0  0  0  0  0  0  0
   23.0190   73.1301   -6.4663 O   0  0  0  0  0  0  0  0  0  0  0  0
   19.1641   71.9229   -6.9183 N   0  0  0  0  0  0  0  0  0  0  0  0
   20.7583   73.6223   -6.4530 N   0  0  0  0  0  0  0  0  0  0  0  0
   19.4074   73.2781   -6.5922 C   0  0  0  0  0  0  0  0  0  0  0  0
   20.2269   71.0413   -7.0745 C   0  0  0  0  0  0  0  0  0  0  0  0
   21.5094   71.3842   -6.9385 C   0  0  0  0  0  0  0  0  0  0  0  0
   21.8498   72.7815   -6.5992 C   0  0  0  0  0  0  0  0  0  0  0  0
   20.9527   74.5609   -6.2281 H   0  0  0  0  0  0  0  0  0  0  0  0
   19.6583   70.0788   -1.9659 O   0  0  0  0  0  0  0  0  0  0  0  0
   20.8955   70.9852   -2.4773 P   0  0  2  0  0  0  0  0  0  0  0  0
   20.2319   72.4510   -2.6540 O   0  0  0  0  0  0  0  0  0  0  0  0
   21.5747   70.4612   -3.7094 O   0  0  0  0  0  0  0  0  0  0  0  0
   21.8585   71.1266   -1.1908 O   0  0  0  0  0  0  0  0  0  0  0  0
   22.7812   72.8977    0.0823 O   0  0  0  0  0  0  0  0  0  0  0  0
   26.0185   70.3591   -0.2963 O   0  0  0  0  0  0  0  0  0  0  0  0
   24.2581   70.8635   -2.5724 O   0  0  0  0  0  0  0  0  0  0  0  0
   24.5693   70.5106    2.2192 O   0  0  0  0  0  0  0  0  0  0  0  0
   24.6374   70.7015   -0.1816 C   0  0  2  0  0  0  0  0  0  0  0  0
   24.2330   71.5967   -1.3532 C   0  0  2  0  0  0  0  0  0  0  0  0
   24.4417   71.4397    1.1446 C   0  0  1  0  0  0  0  0  0  0  0  0
   22.8304   72.1697   -1.1453 C   0  0  1  0  0  0  0  0  0  0  0  0
   23.0630   72.0892    1.2224 C   0  0  1  0  0  0  0  0  0  0  0  0
   26.1670   69.8889   -1.1318 H   0  0  0  0  0  0  0  0  0  0  0  0
   25.1451   70.4968   -2.7105 H   0  0  0  0  0  0  0  0  0  0  0  0
   25.4425   70.0900    2.1811 H   0  0  0  0  0  0  0  0  0  0  0  0
   24.2144   73.1958    2.9404 O   0  0  0  0  0  0  0  0  0  0  0  0
   21.9976   73.6721    2.6991 O   0  0  0  0  0  0  0  0  0  0  0  0
   23.0001   73.0666    2.3507 C   0  0  0  0  0  0  0  0  0  0  0  0
  1  4  1  0
  1 24  1  0
  1  2  1  1
  1  3  2  0
 25 28  1  0
 25 24  1  0
 25 26  1  6
 25 27  2  0
  6 11  1  0
  6 12  1  0
 29 36  1  0
 29 37  1  0
  9  7  1  6
  7 13  1  0
 10  8  1  6
  8 14  1  0
  4  5  1  0
 36 28  1  1
 33 30  1  6
 30 38  1  0
 34 31  1  6
 31 39  1  0
 35 32  1  1
 32 40  1  0
 41 43  1  0
 15 19  2  0
 42 43  2  0
 16 22  2  0
 12 17  1  1
 17 19  1  0
 17 20  1  0
 18 19  1  0
 18 22  1  0
 18 23  1  0
  9 10  1  0
  9 11  1  0
 10 12  1  0
 11  5  1  1
 33 34  1  0
 33 35  1  0
 34 36  1  0
 35 37  1  0
 37 43  1  1
 20 21  2  0
 21 22  1  0
M  CHG  3   2  -1  26  -1  41  -1
M  END
>  <COMPND>  (76) 
    udp_gluA.pdb 

>  <AUTHOR>  (76) 
    GENERATED BY OPEN BABEL 3.1.1

>  <MASTER>  (76) 
        0    0    0    0    0    0    0    0   56    0   56    0

>  <minimizedAffinity>  (76) 
-7.82128

>  <CNNscore>  (76) 
0.4212448299

>  <CNNaffinity>  (76) 
4.1981487274

>  <CNN_VS>  (76) 
1.7684484720

>  <CNNaffinity_variance>  (76) 
0.6870943904

$$$$
77
     RDKit          3D

 43 45  0  0  0  0  0  0  0  0999 V2000
   23.9991   73.7171   -3.9812 P   0  0  2  0  0  0  0  0  0  0  0  0
   24.3977   74.6008   -5.2769 O   0  0  0  0  0  0  0  0  0  0  0  0
   24.9480   72.5998   -3.6601 O   0  0  0  0  0  0  0  0  0  0  0  0
   22.4680   73.2785   -4.2661 O   0  0  0  0  0  0  0  0  0  0  0  0
   22.2301   72.0901   -4.9981 C   0  0  0  0  0  0  0  0  0  0  0  0
   21.1249   71.3720   -7.0082 O   0  0  0  0  0  0  0  0  0  0  0  0
   21.2118   74.2454   -7.8610 O   0  0  0  0  0  0  0  0  0  0  0  0
   18.6424   73.9587   -6.9938 O   0  0  0  0  0  0  0  0  0  0  0  0
   21.0199   73.6951   -6.5576 C   0  0  1  0  0  0  0  0  0  0  0  0
   19.6268   73.1152   -6.4334 C   0  0  2  0  0  0  0  0  0  0  0  0
   21.8934   72.4537   -6.4385 C   0  0  1  0  0  0  0  0  0  0  0  0
   19.7647   71.8002   -7.1814 C   0  0  2  0  0  0  0  0  0  0  0  0
   20.6637   75.0399   -7.9608 H   0  0  0  0  0  0  0  0  0  0  0  0
   18.5929   74.7821   -6.4824 H   0  0  0  0  0  0  0  0  0  0  0  0
   18.1923   70.0949   -8.7926 O   0  0  0  0  0  0  0  0  0  0  0  0
   16.4338   67.9417   -5.1163 O   0  0  0  0  0  0  0  0  0  0  0  0
   18.8871   70.7850   -6.6714 N   0  0  0  0  0  0  0  0  0  0  0  0
   17.3172   69.0248   -6.9601 N   0  0  0  0  0  0  0  0  0  0  0  0
   18.1411   69.9822   -7.5664 C   0  0  0  0  0  0  0  0  0  0  0  0
   18.7731   70.5916   -5.3001 C   0  0  0  0  0  0  0  0  0  0  0  0
   17.9837   69.6749   -4.7370 C   0  0  0  0  0  0  0  0  0  0  0  0
   17.1699   68.7954   -5.6016 C   0  0  0  0  0  0  0  0  0  0  0  0
   16.7865   68.4553   -7.5628 H   0  0  0  0  0  0  0  0  0  0  0  0
   23.8482   74.8279   -2.8167 O   0  0  0  0  0  0  0  0  0  0  0  0
   24.1008   74.7357   -1.2226 P   0  0  2  0  0  0  0  0  0  0  0  0
   23.1163   75.8734   -0.6256 O   0  0  0  0  0  0  0  0  0  0  0  0
   25.5384   74.8872   -0.8172 O   0  0  0  0  0  0  0  0  0  0  0  0
   23.4243   73.3393   -0.7811 O   0  0  0  0  0  0  0  0  0  0  0  0
   24.4082   72.6550    1.2617 O   0  0  0  0  0  0  0  0  0  0  0  0
   21.7551   69.5732    0.5325 O   0  0  0  0  0  0  0  0  0  0  0  0
   23.3554   70.6944   -1.6391 O   0  0  0  0  0  0  0  0  0  0  0  0
   21.1428   71.5805    2.5442 O   0  0  0  0  0  0  0  0  0  0  0  0
   22.2306   70.9189    0.4987 C   0  0  2  0  0  0  0  0  0  0  0  0
   23.5575   70.9739   -0.2586 C   0  0  2  0  0  0  0  0  0  0  0  0
   22.4217   71.3893    1.9423 C   0  0  1  0  0  0  0  0  0  0  0  0
   24.2103   72.3498   -0.1194 C   0  0  1  0  0  0  0  0  0  0  0  0
   23.1907   72.7060    2.0020 C   0  0  1  0  0  0  0  0  0  0  0  0
   21.6262   69.2528   -0.3741 H   0  0  0  0  0  0  0  0  0  0  0  0
   22.9412   69.8229   -1.7349 H   0  0  0  0  0  0  0  0  0  0  0  0
   20.6431   70.7498    2.5126 H   0  0  0  0  0  0  0  0  0  0  0  0
   23.4931   71.8944    4.1817 O   0  0  0  0  0  0  0  0  0  0  0  0
   24.1222   74.0484    3.7773 O   0  0  0  0  0  0  0  0  0  0  0  0
   23.6559   72.9861    3.3939 C   0  0  0  0  0  0  0  0  0  0  0  0
  1  4  1  0
  1 24  1  0
  1  2  1  6
  1  3  2  0
 25 28  1  0
 25 24  1  0
 25 26  1  1
 25 27  2  0
  6 11  1  0
  6 12  1  0
 29 36  1  0
 29 37  1  0
  9  7  1  6
  7 13  1  0
 10  8  1  6
  8 14  1  0
  4  5  1  0
 36 28  1  1
 33 30  1  1
 30 38  1  0
 34 31  1  6
 31 39  1  0
 35 32  1  6
 32 40  1  0
 41 43  1  0
 15 19  2  0
 42 43  2  0
 16 22  2  0
 12 17  1  1
 17 19  1  0
 17 20  1  0
 18 19  1  0
 18 22  1  0
 18 23  1  0
  9 10  1  0
  9 11  1  0
 10 12  1  0
 11  5  1  1
 33 34  1  0
 33 35  1  0
 34 36  1  0
 35 37  1  0
 37 43  1  1
 20 21  2  0
 21 22  1  0
M  CHG  3   2  -1  26  -1  41  -1
M  END
>  <COMPND>  (77) 
    udp_gluA.pdb 

>  <AUTHOR>  (77) 
    GENERATED BY OPEN BABEL 3.1.1

>  <MASTER>  (77) 
        0    0    0    0    0    0    0    0   56    0   56    0

>  <minimizedAffinity>  (77) 
-7.59140

>  <CNNscore>  (77) 
0.4163085818

>  <CNNaffinity>  (77) 
4.0668978691

>  <CNN_VS>  (77) 
1.6930844784

>  <CNNaffinity_variance>  (77) 
0.2573046684

$$$$
78
     RDKit          3D

 43 45  0  0  0  0  0  0  0  0999 V2000
   17.9952   72.9996   -2.5106 P   0  0  2  0  0  0  0  0  0  0  0  0
   17.2236   73.8679   -3.6373 O   0  0  0  0  0  0  0  0  0  0  0  0
   17.1598   71.9507   -1.8369 O   0  0  0  0  0  0  0  0  0  0  0  0
   18.6420   74.1164   -1.5348 O   0  0  0  0  0  0  0  0  0  0  0  0
   19.8763   73.8294   -0.9034 C   0  0  0  0  0  0  0  0  0  0  0  0
   20.3676   72.1211    0.7147 O   0  0  0  0  0  0  0  0  0  0  0  0
   19.3178   74.0310    2.7743 O   0  0  0  0  0  0  0  0  0  0  0  0
   22.0190   74.2953    3.0384 O   0  0  0  0  0  0  0  0  0  0  0  0
   20.0666   74.3018    1.5892 C   0  0  1  0  0  0  0  0  0  0  0  0
   21.5138   73.9000    1.7803 C   0  0  2  0  0  0  0  0  0  0  0  0
   19.6061   73.3310    0.5105 C   0  0  1  0  0  0  0  0  0  0  0  0
   21.4449   72.3903    1.6259 C   0  0  2  0  0  0  0  0  0  0  0  0
   19.5946   74.6391    3.4781 H   0  0  0  0  0  0  0  0  0  0  0  0
   22.0433   75.2644    3.0871 H   0  0  0  0  0  0  0  0  0  0  0  0
   23.6327   71.5321    3.1923 O   0  0  0  0  0  0  0  0  0  0  0  0
   26.0462   70.2884   -0.5323 O   0  0  0  0  0  0  0  0  0  0  0  0
   22.6575   71.8382    1.0914 N   0  0  0  0  0  0  0  0  0  0  0  0
   24.8331   70.9144    1.3357 N   0  0  0  0  0  0  0  0  0  0  0  0
   23.6961   71.4381    1.9651 C   0  0  0  0  0  0  0  0  0  0  0  0
   22.8083   71.6962   -0.2827 C   0  0  0  0  0  0  0  0  0  0  0  0
   23.8979   71.1952   -0.8678 C   0  0  0  0  0  0  0  0  0  0  0  0
   25.0296   70.7541   -0.0264 C   0  0  0  0  0  0  0  0  0  0  0  0
   25.5704   70.6308    1.9233 H   0  0  0  0  0  0  0  0  0  0  0  0
   19.2788   72.4275   -3.3093 O   0  0  0  0  0  0  0  0  0  0  0  0
   19.9452   72.8805   -4.7109 P   0  0  2  0  0  0  0  0  0  0  0  0
   21.4079   72.1887   -4.6656 O   0  0  0  0  0  0  0  0  0  0  0  0
   19.9700   74.3656   -4.9294 O   0  0  0  0  0  0  0  0  0  0  0  0
   19.1374   72.0518   -5.8349 O   0  0  0  0  0  0  0  0  0  0  0  0
   18.7287   69.7499   -5.4562 O   0  0  0  0  0  0  0  0  0  0  0  0
   17.9299   70.0923   -9.4951 O   0  0  0  0  0  0  0  0  0  0  0  0
   20.2327   71.4531   -8.3204 O   0  0  0  0  0  0  0  0  0  0  0  0
   15.7460   69.8667   -7.5897 O   0  0  0  0  0  0  0  0  0  0  0  0
   17.9962   70.5306   -8.1381 C   0  0  2  0  0  0  0  0  0  0  0  0
   19.4448   70.4745   -7.6524 C   0  0  2  0  0  0  0  0  0  0  0  0
   17.1168   69.6020   -7.2977 C   0  0  1  0  0  0  0  0  0  0  0  0
   19.5259   70.7146   -6.1442 C   0  0  1  0  0  0  0  0  0  0  0  0
   17.3477   69.8164   -5.8047 C   0  0  1  0  0  0  0  0  0  0  0  0
   18.4814   70.6678  -10.0482 H   0  0  0  0  0  0  0  0  0  0  0  0
   20.1856   71.3069   -9.2779 H   0  0  0  0  0  0  0  0  0  0  0  0
   15.5857   69.7340   -8.5371 H   0  0  0  0  0  0  0  0  0  0  0  0
   16.6947   69.0282   -3.6942 O   0  0  0  0  0  0  0  0  0  0  0  0
   16.3528   67.6434   -5.4732 O   0  0  0  0  0  0  0  0  0  0  0  0
   16.7471   68.7030   -5.0097 C   0  0  0  0  0  0  0  0  0  0  0  0
  1  4  1  0
  1 24  1  0
  1  2  1  6
  1  3  2  0
 25 28  1  0
 25 24  1  0
 25 26  1  1
 25 27  2  0
  6 11  1  0
  6 12  1  0
 29 36  1  0
 29 37  1  0
  9  7  1  1
  7 13  1  0
 10  8  1  1
  8 14  1  0
  4  5  1  0
 36 28  1  6
 33 30  1  6
 30 38  1  0
 34 31  1  6
 31 39  1  0
 35 32  1  1
 32 40  1  0
 41 43  1  0
 15 19  2  0
 42 43  2  0
 16 22  2  0
 12 17  1  6
 17 19  1  0
 17 20  1  0
 18 19  1  0
 18 22  1  0
 18 23  1  0
  9 10  1  0
  9 11  1  0
 10 12  1  0
 11  5  1  6
 33 34  1  0
 33 35  1  0
 34 36  1  0
 35 37  1  0
 37 43  1  1
 20 21  2  0
 21 22  1  0
M  CHG  3   2  -1  26  -1  41  -1
M  END
>  <COMPND>  (78) 
    udp_gluA.pdb 

>  <AUTHOR>  (78) 
    GENERATED BY OPEN BABEL 3.1.1

>  <MASTER>  (78) 
        0    0    0    0    0    0    0    0   56    0   56    0

>  <minimizedAffinity>  (78) 
-6.78344

>  <CNNscore>  (78) 
0.4139204919

>  <CNNaffinity>  (78) 
4.1933884621

>  <CNN_VS>  (78) 
1.7357294559

>  <CNNaffinity_variance>  (78) 
0.2294999361

$$$$
79
     RDKit          3D

 43 45  0  0  0  0  0  0  0  0999 V2000
   18.1488   69.9893   -2.5357 P   0  0  2  0  0  0  0  0  0  0  0  0
   17.5945   68.5730   -1.9827 O   0  0  0  0  0  0  0  0  0  0  0  0
   17.3556   71.1899   -2.1099 O   0  0  0  0  0  0  0  0  0  0  0  0
   18.2747   69.7606   -4.1325 O   0  0  0  0  0  0  0  0  0  0  0  0
   17.2519   69.0399   -4.7949 C   0  0  0  0  0  0  0  0  0  0  0  0
   17.1965   71.2500   -5.7383 O   0  0  0  0  0  0  0  0  0  0  0  0
   15.3392   70.1203   -7.8037 O   0  0  0  0  0  0  0  0  0  0  0  0
   17.7219   70.2045   -9.1272 O   0  0  0  0  0  0  0  0  0  0  0  0
   16.4619   69.5095   -7.1673 C   0  0  1  0  0  0  0  0  0  0  0  0
   17.7515   70.0776   -7.7210 C   0  0  2  0  0  0  0  0  0  0  0  0
   16.4988   69.9858   -5.7215 C   0  0  1  0  0  0  0  0  0  0  0  0
   17.8339   71.4199   -7.0143 C   0  0  2  0  0  0  0  0  0  0  0  0
   15.2947   69.8310   -8.7289 H   0  0  0  0  0  0  0  0  0  0  0  0
   17.6696   69.3231   -9.5304 H   0  0  0  0  0  0  0  0  0  0  0  0
   18.5964   74.0769   -6.4353 O   0  0  0  0  0  0  0  0  0  0  0  0
   23.0601   72.9456   -6.2360 O   0  0  0  0  0  0  0  0  0  0  0  0
   19.1884   71.8475   -6.8064 N   0  0  0  0  0  0  0  0  0  0  0  0
   20.8190   73.5111   -6.3376 N   0  0  0  0  0  0  0  0  0  0  0  0
   19.4640   73.2057   -6.5212 C   0  0  0  0  0  0  0  0  0  0  0  0
   20.2261   70.9265   -6.8840 C   0  0  0  0  0  0  0  0  0  0  0  0
   21.5128   71.2326   -6.7064 C   0  0  0  0  0  0  0  0  0  0  0  0
   21.8862   72.6302   -6.4054 C   0  0  0  0  0  0  0  0  0  0  0  0
   21.0357   74.4509   -6.1399 H   0  0  0  0  0  0  0  0  0  0  0  0
   19.6894   69.9920   -2.0464 O   0  0  0  0  0  0  0  0  0  0  0  0
   20.9641   70.8445   -2.5583 P   0  0  2  0  0  0  0  0  0  0  0  0
   20.2866   72.0960   -3.3295 O   0  0  0  0  0  0  0  0  0  0  0  0
   21.9366   70.0589   -3.3896 O   0  0  0  0  0  0  0  0  0  0  0  0
   21.5935   71.4845   -1.2179 O   0  0  0  0  0  0  0  0  0  0  0  0
   21.9274   70.8560    1.0410 O   0  0  0  0  0  0  0  0  0  0  0  0
   20.4150   74.6791    1.4469 O   0  0  0  0  0  0  0  0  0  0  0  0
   19.2674   72.8319   -0.5038 O   0  0  0  0  0  0  0  0  0  0  0  0
   23.2533   74.1841    1.8340 O   0  0  0  0  0  0  0  0  0  0  0  0
   21.1425   73.6258    0.8152 C   0  0  2  0  0  0  0  0  0  0  0  0
   20.1976   72.4637    0.5080 C   0  0  2  0  0  0  0  0  0  0  0  0
   22.2479   73.1742    1.7724 C   0  0  1  0  0  0  0  0  0  0  0  0
   20.9772   71.2327    0.0437 C   0  0  1  0  0  0  0  0  0  0  0  0
   22.8922   71.8723    1.3049 C   0  0  1  0  0  0  0  0  0  0  0  0
   19.7069   74.9823    0.8571 H   0  0  0  0  0  0  0  0  0  0  0  0
   18.7694   73.6126   -0.2159 H   0  0  0  0  0  0  0  0  0  0  0  0
   22.8563   75.0180    2.1301 H   0  0  0  0  0  0  0  0  0  0  0  0
   23.3641   71.7705    3.6002 O   0  0  0  0  0  0  0  0  0  0  0  0
   24.6057   70.4433    2.2231 O   0  0  0  0  0  0  0  0  0  0  0  0
   23.7235   71.2718    2.3914 C   0  0  0  0  0  0  0  0  0  0  0  0
  1  4  1  0
  1 24  1  0
  1  2  1  1
  1  3  2  0
 25 28  1  0
 25 24  1  0
 25 26  1  6
 25 27  2  0
  6 11  1  0
  6 12  1  0
 29 36  1  0
 29 37  1  0
  9  7  1  6
  7 13  1  0
 10  8  1  6
  8 14  1  0
  4  5  1  0
 36 28  1  6
 33 30  1  1
 30 38  1  0
 34 31  1  6
 31 39  1  0
 35 32  1  6
 32 40  1  0
 41 43  1  0
 15 19  2  0
 42 43  2  0
 16 22  2  0
 12 17  1  1
 17 19  1  0
 17 20  1  0
 18 19  1  0
 18 22  1  0
 18 23  1  0
  9 10  1  0
  9 11  1  0
 10 12  1  0
 11  5  1  1
 33 34  1  0
 33 35  1  0
 34 36  1  0
 35 37  1  0
 37 43  1  1
 20 21  2  0
 21 22  1  0
M  CHG  3   2  -1  26  -1  41  -1
M  END
>  <COMPND>  (79) 
    udp_gluA.pdb 

>  <AUTHOR>  (79) 
    GENERATED BY OPEN BABEL 3.1.1

>  <MASTER>  (79) 
        0    0    0    0    0    0    0    0   56    0   56    0

>  <minimizedAffinity>  (79) 
-7.25322

>  <CNNscore>  (79) 
0.4088783562

>  <CNNaffinity>  (79) 
4.1590509415

>  <CNN_VS>  (79) 
1.7005459070

>  <CNNaffinity_variance>  (79) 
0.3305525482

$$$$
80
     RDKit          3D

 43 45  0  0  0  0  0  0  0  0999 V2000
   19.6473   71.5541   -2.1845 P   0  0  2  0  0  0  0  0  0  0  0  0
   20.3479   70.7338   -3.3907 O   0  0  0  0  0  0  0  0  0  0  0  0
   19.9453   73.0246   -2.1614 O   0  0  0  0  0  0  0  0  0  0  0  0
   20.0702   70.7306   -0.8575 O   0  0  0  0  0  0  0  0  0  0  0  0
   20.9944   71.3204    0.0384 C   0  0  0  0  0  0  0  0  0  0  0  0
   22.9126   71.0704   -1.3885 O   0  0  0  0  0  0  0  0  0  0  0  0
   24.3388   70.0105    1.0269 O   0  0  0  0  0  0  0  0  0  0  0  0
   25.2434   72.5788    0.8800 O   0  0  0  0  0  0  0  0  0  0  0  0
   23.3581   71.0444    0.9378 C   0  0  1  0  0  0  0  0  0  0  0  0
   23.9683   72.2958    0.3429 C   0  0  2  0  0  0  0  0  0  0  0  0
   22.3488   70.6437   -0.1294 C   0  0  1  0  0  0  0  0  0  0  0  0
   24.0203   71.9492   -1.1353 C   0  0  2  0  0  0  0  0  0  0  0  0
   24.9949   70.2441    1.7027 H   0  0  0  0  0  0  0  0  0  0  0  0
   25.1568   72.7936    1.8225 H   0  0  0  0  0  0  0  0  0  0  0  0
   25.2119   72.2055   -3.6831 O   0  0  0  0  0  0  0  0  0  0  0  0
   23.4857   76.4392   -4.2661 O   0  0  0  0  0  0  0  0  0  0  0  0
   23.8985   73.1076   -1.9744 N   0  0  0  0  0  0  0  0  0  0  0  0
   24.3519   74.3143   -3.9706 N   0  0  0  0  0  0  0  0  0  0  0  0
   24.5369   73.1351   -3.2369 C   0  0  0  0  0  0  0  0  0  0  0  0
   23.1526   74.1990   -1.5460 C   0  0  0  0  0  0  0  0  0  0  0  0
   22.9853   75.3161   -2.2566 C   0  0  0  0  0  0  0  0  0  0  0  0
   23.6199   75.4261   -3.5864 C   0  0  0  0  0  0  0  0  0  0  0  0
   24.7885   74.3576   -4.8520 H   0  0  0  0  0  0  0  0  0  0  0  0
   18.0826   71.1868   -2.3567 O   0  0  0  0  0  0  0  0  0  0  0  0
   17.3542   69.7917   -2.7268 P   0  0  2  0  0  0  0  0  0  0  0  0
   15.8235   70.0390   -2.2619 O   0  0  0  0  0  0  0  0  0  0  0  0
   17.9978   68.5803   -2.1167 O   0  0  0  0  0  0  0  0  0  0  0  0
   17.2929   69.7770   -4.3388 O   0  0  0  0  0  0  0  0  0  0  0  0
   18.4390   71.1859   -5.8589 O   0  0  0  0  0  0  0  0  0  0  0  0
   15.0096   70.2777   -7.9762 O   0  0  0  0  0  0  0  0  0  0  0  0
   14.8695   70.8935   -5.1239 O   0  0  0  0  0  0  0  0  0  0  0  0
   17.5296   69.0012   -8.6629 O   0  0  0  0  0  0  0  0  0  0  0  0
   16.0713   70.0413   -7.0515 C   0  0  2  0  0  0  0  0  0  0  0  0
   16.0213   71.0865   -5.9368 C   0  0  2  0  0  0  0  0  0  0  0  0
   17.3940   70.1400   -7.8148 C   0  0  1  0  0  0  0  0  0  0  0  0
   17.2702   71.0089   -5.0576 C   0  0  1  0  0  0  0  0  0  0  0  0
   18.5851   70.1831   -6.8619 C   0  0  1  0  0  0  0  0  0  0  0  0
   14.1588   70.2201   -7.5136 H   0  0  0  0  0  0  0  0  0  0  0  0
   14.0733   70.9413   -5.6754 H   0  0  0  0  0  0  0  0  0  0  0  0
   16.7775   68.9620   -9.2743 H   0  0  0  0  0  0  0  0  0  0  0  0
   20.8052   70.9223   -6.6993 O   0  0  0  0  0  0  0  0  0  0  0  0
   19.9472   70.6600   -8.7956 O   0  0  0  0  0  0  0  0  0  0  0  0
   19.8246   70.6060   -7.5810 C   0  0  0  0  0  0  0  0  0  0  0  0
  1  4  1  0
  1 24  1  0
  1  2  1  6
  1  3  2  0
 25 28  1  0
 25 24  1  0
 25 26  1  1
 25 27  2  0
  6 11  1  0
  6 12  1  0
 29 36  1  0
 29 37  1  0
  9  7  1  6
  7 13  1  0
 10  8  1  1
  8 14  1  0
  4  5  1  0
 36 28  1  6
 33 30  1  6
 30 38  1  0
 34 31  1  1
 31 39  1  0
 35 32  1  6
 32 40  1  0
 41 43  1  0
 15 19  2  0
 42 43  2  0
 16 22  2  0
 12 17  1  6
 17 19  1  0
 17 20  1  0
 18 19  1  0
 18 22  1  0
 18 23  1  0
  9 10  1  0
  9 11  1  0
 10 12  1  0
 11  5  1  1
 33 34  1  0
 33 35  1  0
 34 36  1  0
 35 37  1  0
 37 43  1  6
 20 21  2  0
 21 22  1  0
M  CHG  3   2  -1  26  -1  41  -1
M  END
>  <COMPND>  (80) 
    udp_gluA.pdb 

>  <AUTHOR>  (80) 
    GENERATED BY OPEN BABEL 3.1.1

>  <MASTER>  (80) 
        0    0    0    0    0    0    0    0   56    0   56    0

>  <minimizedAffinity>  (80) 
-7.26563

>  <CNNscore>  (80) 
0.3786173761

>  <CNNaffinity>  (80) 
4.2266411781

>  <CNN_VS>  (80) 
1.6002798080

>  <CNNaffinity_variance>  (80) 
0.2586806715

$$$$
81
     RDKit          3D

 43 45  0  0  0  0  0  0  0  0999 V2000
   20.9753   70.6145   -0.5378 P   0  0  2  0  0  0  0  0  0  0  0  0
   21.6475   69.6883    0.6064 O   0  0  0  0  0  0  0  0  0  0  0  0
   20.6001   71.9978   -0.0937 O   0  0  0  0  0  0  0  0  0  0  0  0
   19.7638   69.7074   -1.1098 O   0  0  0  0  0  0  0  0  0  0  0  0
   19.3057   69.9446   -2.4283 C   0  0  0  0  0  0  0  0  0  0  0  0
   17.2717   68.9059   -1.6790 O   0  0  0  0  0  0  0  0  0  0  0  0
   16.8521   68.0958   -4.5355 O   0  0  0  0  0  0  0  0  0  0  0  0
   15.2041   70.2533   -4.2798 O   0  0  0  0  0  0  0  0  0  0  0  0
   17.4225   69.2949   -4.0107 C   0  0  1  0  0  0  0  0  0  0  0  0
   16.3385   70.1854   -3.4413 C   0  0  2  0  0  0  0  0  0  0  0  0
   18.2211   68.9300   -2.7668 C   0  0  1  0  0  0  0  0  0  0  0  0
   16.0435   69.5123   -2.1117 C   0  0  2  0  0  0  0  0  0  0  0  0
   16.3369   68.3036   -5.3311 H   0  0  0  0  0  0  0  0  0  0  0  0
   15.4435   70.6899   -5.1129 H   0  0  0  0  0  0  0  0  0  0  0  0
   14.0449   68.9676   -0.1920 O   0  0  0  0  0  0  0  0  0  0  0  0
   14.4413   73.1615    1.6783 O   0  0  0  0  0  0  0  0  0  0  0  0
   15.6050   70.4439   -1.1114 N   0  0  0  0  0  0  0  0  0  0  0  0
   14.2435   71.0573    0.7370 N   0  0  0  0  0  0  0  0  0  0  0  0
   14.5940   70.0710   -0.1943 C   0  0  0  0  0  0  0  0  0  0  0  0
   16.1752   71.7093   -1.0445 C   0  0  0  0  0  0  0  0  0  0  0  0
   15.8308   72.6388   -0.1510 C   0  0  0  0  0  0  0  0  0  0  0  0
   14.7815   72.3297    0.8424 C   0  0  0  0  0  0  0  0  0  0  0  0
   13.5404   70.8216    1.3846 H   0  0  0  0  0  0  0  0  0  0  0  0
   22.0633   70.5627   -1.7322 O   0  0  0  0  0  0  0  0  0  0  0  0
   22.9005   71.7404   -2.4571 P   0  0  2  0  0  0  0  0  0  0  0  0
   24.1405   70.9500   -3.1339 O   0  0  0  0  0  0  0  0  0  0  0  0
   23.3060   72.8602   -1.5430 O   0  0  0  0  0  0  0  0  0  0  0  0
   21.9781   72.1923   -3.7010 O   0  0  0  0  0  0  0  0  0  0  0  0
   20.9491   71.1478   -5.5610 O   0  0  0  0  0  0  0  0  0  0  0  0
   22.5313   74.5553   -7.2795 O   0  0  0  0  0  0  0  0  0  0  0  0
   24.0754   73.0285   -5.3252 O   0  0  0  0  0  0  0  0  0  0  0  0
   19.6786   74.3784   -6.7489 O   0  0  0  0  0  0  0  0  0  0  0  0
   21.9529   73.7694   -6.2375 C   0  0  2  0  0  0  0  0  0  0  0  0
   22.8648   72.5826   -5.9253 C   0  0  2  0  0  0  0  0  0  0  0  0
   20.5859   73.2782   -6.7189 C   0  0  1  0  0  0  0  0  0  0  0  0
   22.1751   71.5961   -4.9818 C   0  0  1  0  0  0  0  0  0  0  0  0
   20.0213   72.2056   -5.7919 C   0  0  1  0  0  0  0  0  0  0  0  0
   23.4012   74.8785   -6.9962 H   0  0  0  0  0  0  0  0  0  0  0  0
   24.5182   73.6550   -5.9184 H   0  0  0  0  0  0  0  0  0  0  0  0
   20.0263   75.0683   -7.3354 H   0  0  0  0  0  0  0  0  0  0  0  0
   17.7337   72.2400   -6.3088 O   0  0  0  0  0  0  0  0  0  0  0  0
   18.9274   70.4218   -6.9931 O   0  0  0  0  0  0  0  0  0  0  0  0
   18.8669   71.5055   -6.4319 C   0  0  0  0  0  0  0  0  0  0  0  0
  1  4  1  0
  1 24  1  0
  1  2  1  1
  1  3  2  0
 25 28  1  0
 25 24  1  0
 25 26  1  6
 25 27  2  0
  6 11  1  0
  6 12  1  0
 29 36  1  0
 29 37  1  0
  9  7  1  1
  7 13  1  0
 10  8  1  6
  8 14  1  0
  4  5  1  0
 36 28  1  1
 33 30  1  6
 30 38  1  0
 34 31  1  1
 31 39  1  0
 35 32  1  1
 32 40  1  0
 41 43  1  0
 15 19  2  0
 42 43  2  0
 16 22  2  0
 12 17  1  1
 17 19  1  0
 17 20  1  0
 18 19  1  0
 18 22  1  0
 18 23  1  0
  9 10  1  0
  9 11  1  0
 10 12  1  0
 11  5  1  1
 33 34  1  0
 33 35  1  0
 34 36  1  0
 35 37  1  0
 37 43  1  6
 20 21  2  0
 21 22  1  0
M  CHG  3   2  -1  26  -1  41  -1
M  END
>  <COMPND>  (81) 
    udp_gluA.pdb 

>  <AUTHOR>  (81) 
    GENERATED BY OPEN BABEL 3.1.1

>  <MASTER>  (81) 
        0    0    0    0    0    0    0    0   56    0   56    0

>  <minimizedAffinity>  (81) 
-7.41771

>  <CNNscore>  (81) 
0.7933807969

>  <CNNaffinity>  (81) 
4.3839879036

>  <CNN_VS>  (81) 
3.4781718254

>  <CNNaffinity_variance>  (81) 
0.1061364189

$$$$
82
     RDKit          3D

 43 45  0  0  0  0  0  0  0  0999 V2000
   22.1209   71.5775   -1.9513 P   0  0  2  0  0  0  0  0  0  0  0  0
   22.7257   70.2547   -2.6609 O   0  0  0  0  0  0  0  0  0  0  0  0
   20.6231   71.6274   -1.8759 O   0  0  0  0  0  0  0  0  0  0  0  0
   22.8257   72.7998   -2.7434 O   0  0  0  0  0  0  0  0  0  0  0  0
   22.1726   73.3349   -3.8799 C   0  0  0  0  0  0  0  0  0  0  0  0
   22.3109   71.5613   -5.4963 O   0  0  0  0  0  0  0  0  0  0  0  0
   23.7430   73.5249   -7.2527 O   0  0  0  0  0  0  0  0  0  0  0  0
   21.2187   73.5335   -8.2840 O   0  0  0  0  0  0  0  0  0  0  0  0
   22.6659   73.7453   -6.3417 C   0  0  1  0  0  0  0  0  0  0  0  0
   21.3733   73.2081   -6.9185 C   0  0  2  0  0  0  0  0  0  0  0  0
   22.8775   72.8397   -5.1361 C   0  0  1  0  0  0  0  0  0  0  0  0
   21.5214   71.7140   -6.6866 C   0  0  2  0  0  0  0  0  0  0  0  0
   23.6296   74.0927   -8.0314 H   0  0  0  0  0  0  0  0  0  0  0  0
   21.1282   74.4952   -8.3790 H   0  0  0  0  0  0  0  0  0  0  0  0
   19.9910   70.5627   -8.7623 O   0  0  0  0  0  0  0  0  0  0  0  0
   16.6858   69.2356   -5.8367 O   0  0  0  0  0  0  0  0  0  0  0  0
   20.2572   71.0612   -6.4953 N   0  0  0  0  0  0  0  0  0  0  0  0
   18.3458   69.9037   -7.3034 N   0  0  0  0  0  0  0  0  0  0  0  0
   19.5692   70.5162   -7.6052 C   0  0  0  0  0  0  0  0  0  0  0  0
   19.7125   70.9643   -5.2207 C   0  0  0  0  0  0  0  0  0  0  0  0
   18.5453   70.3774   -4.9486 C   0  0  0  0  0  0  0  0  0  0  0  0
   17.7628   69.7833   -6.0523 C   0  0  0  0  0  0  0  0  0  0  0  0
   17.8475   69.5187   -8.0602 H   0  0  0  0  0  0  0  0  0  0  0  0
   22.8682   71.5943   -0.5181 O   0  0  0  0  0  0  0  0  0  0  0  0
   22.9109   70.4984    0.6696 P   0  0  2  0  0  0  0  0  0  0  0  0
   24.4084   69.8935    0.5612 O   0  0  0  0  0  0  0  0  0  0  0  0
   21.8211   69.4683    0.5965 O   0  0  0  0  0  0  0  0  0  0  0  0
   22.9203   71.3677    2.0285 O   0  0  0  0  0  0  0  0  0  0  0  0
   22.1653   73.4435    2.8830 O   0  0  0  0  0  0  0  0  0  0  0  0
   26.1626   73.5092    3.9249 O   0  0  0  0  0  0  0  0  0  0  0  0
   25.3332   72.5415    1.2962 O   0  0  0  0  0  0  0  0  0  0  0  0
   24.1380   72.9710    5.9404 O   0  0  0  0  0  0  0  0  0  0  0  0
   24.8962   72.9085    3.6543 C   0  0  2  0  0  0  0  0  0  0  0  0
   24.4812   73.2156    2.2152 C   0  0  2  0  0  0  0  0  0  0  0  0
   23.8774   73.4895    4.6375 C   0  0  1  0  0  0  0  0  0  0  0  0
   23.0353   72.7878    1.9596 C   0  0  1  0  0  0  0  0  0  0  0  0
   22.4500   73.1220    4.2427 C   0  0  1  0  0  0  0  0  0  0  0  0
   26.8262   73.1552    3.3120 H   0  0  0  0  0  0  0  0  0  0  0  0
   26.2523   72.8080    1.4529 H   0  0  0  0  0  0  0  0  0  0  0  0
   25.0436   73.1979    6.2036 H   0  0  0  0  0  0  0  0  0  0  0  0
   20.2057   73.7405    4.5292 O   0  0  0  0  0  0  0  0  0  0  0  0
   21.7367   74.7106    5.9127 O   0  0  0  0  0  0  0  0  0  0  0  0
   21.4611   73.9496    4.9973 C   0  0  0  0  0  0  0  0  0  0  0  0
  1  4  1  0
  1 24  1  0
  1  2  1  6
  1  3  2  0
 25 28  1  0
 25 24  1  0
 25 26  1  6
 25 27  2  0
  6 11  1  0
  6 12  1  0
 29 36  1  0
 29 37  1  0
  9  7  1  6
  7 13  1  0
 10  8  1  6
  8 14  1  0
  4  5  1  0
 36 28  1  1
 33 30  1  1
 30 38  1  0
 34 31  1  6
 31 39  1  0
 35 32  1  1
 32 40  1  0
 41 43  1  0
 15 19  2  0
 42 43  2  0
 16 22  2  0
 12 17  1  1
 17 19  1  0
 17 20  1  0
 18 19  1  0
 18 22  1  0
 18 23  1  0
  9 10  1  0
  9 11  1  0
 10 12  1  0
 11  5  1  1
 33 34  1  0
 33 35  1  0
 34 36  1  0
 35 37  1  0
 37 43  1  1
 20 21  2  0
 21 22  1  0
M  CHG  3   2  -1  26  -1  41  -1
M  END
>  <COMPND>  (82) 
    udp_gluA.pdb 

>  <AUTHOR>  (82) 
    GENERATED BY OPEN BABEL 3.1.1

>  <MASTER>  (82) 
        0    0    0    0    0    0    0    0   56    0   56    0

>  <minimizedAffinity>  (82) 
-6.99910

>  <CNNscore>  (82) 
0.7530320287

>  <CNNaffinity>  (82) 
4.4696016312

>  <CNN_VS>  (82) 
3.3657531738

>  <CNNaffinity_variance>  (82) 
0.0158793032

$$$$
83
     RDKit          3D

 43 45  0  0  0  0  0  0  0  0999 V2000
   19.9234   70.9732   -1.5209 P   0  0  2  0  0  0  0  0  0  0  0  0
   18.9183   69.7240   -1.3010 O   0  0  0  0  0  0  0  0  0  0  0  0
   19.4164   72.2912   -1.0135 O   0  0  0  0  0  0  0  0  0  0  0  0
   20.2746   70.9160   -3.0993 O   0  0  0  0  0  0  0  0  0  0  0  0
   20.8121   72.0722   -3.7147 C   0  0  0  0  0  0  0  0  0  0  0  0
   21.0145   70.5824   -5.5901 O   0  0  0  0  0  0  0  0  0  0  0  0
   23.1021   72.4692   -6.6261 O   0  0  0  0  0  0  0  0  0  0  0  0
   20.9062   73.1453   -8.0948 O   0  0  0  0  0  0  0  0  0  0  0  0
   21.9004   72.7557   -5.9103 C   0  0  1  0  0  0  0  0  0  0  0  0
   20.6983   72.5857   -6.8149 C   0  0  2  0  0  0  0  0  0  0  0  0
   21.6880   71.6487   -4.8868 C   0  0  1  0  0  0  0  0  0  0  0  0
   20.5451   71.0748   -6.8552 C   0  0  2  0  0  0  0  0  0  0  0  0
   23.2589   73.1630   -7.2862 H   0  0  0  0  0  0  0  0  0  0  0  0
   20.9974   74.1084   -8.0157 H   0  0  0  0  0  0  0  0  0  0  0  0
   19.3593   70.5516   -9.3645 O   0  0  0  0  0  0  0  0  0  0  0  0
   15.3027   69.5168   -7.4364 O   0  0  0  0  0  0  0  0  0  0  0  0
   19.1808   70.6671   -7.0378 N   0  0  0  0  0  0  0  0  0  0  0  0
   17.3397   70.0377   -8.4019 N   0  0  0  0  0  0  0  0  0  0  0  0
   18.6835   70.4298   -8.3411 C   0  0  0  0  0  0  0  0  0  0  0  0
   18.3518   70.5046   -5.9345 C   0  0  0  0  0  0  0  0  0  0  0  0
   17.0731   70.1302   -6.0083 C   0  0  0  0  0  0  0  0  0  0  0  0
   16.4755   69.8633   -7.3331 C   0  0  0  0  0  0  0  0  0  0  0  0
   16.9704   69.8687   -9.2988 H   0  0  0  0  0  0  0  0  0  0  0  0
   21.2913   70.4651   -0.8256 O   0  0  0  0  0  0  0  0  0  0  0  0
   22.0839   71.0040    0.4763 P   0  0  2  0  0  0  0  0  0  0  0  0
   23.2374   69.8895    0.6946 O   0  0  0  0  0  0  0  0  0  0  0  0
   21.2119   71.2347    1.6764 O   0  0  0  0  0  0  0  0  0  0  0  0
   22.8743   72.3127   -0.0384 O   0  0  0  0  0  0  0  0  0  0  0  0
   24.5775   72.4254   -1.6802 O   0  0  0  0  0  0  0  0  0  0  0  0
   25.5423   75.6220    0.7527 O   0  0  0  0  0  0  0  0  0  0  0  0
   24.7006   73.0775    1.9151 O   0  0  0  0  0  0  0  0  0  0  0  0
   24.2793   76.0795   -1.8254 O   0  0  0  0  0  0  0  0  0  0  0  0
   24.6731   74.6929    0.1052 C   0  0  2  0  0  0  0  0  0  0  0  0
   25.0257   73.2712    0.5435 C   0  0  2  0  0  0  0  0  0  0  0  0
   24.8590   74.8455   -1.4061 C   0  0  1  0  0  0  0  0  0  0  0  0
   24.2751   72.2375   -0.2972 C   0  0  1  0  0  0  0  0  0  0  0  0
   24.1867   73.7070   -2.1679 C   0  0  1  0  0  0  0  0  0  0  0  0
   25.4415   75.5432    1.7144 H   0  0  0  0  0  0  0  0  0  0  0  0
   25.1732   73.7303    2.4544 H   0  0  0  0  0  0  0  0  0  0  0  0
   24.6984   76.8124   -1.3479 H   0  0  0  0  0  0  0  0  0  0  0  0
   24.9764   72.4170   -3.9606 O   0  0  0  0  0  0  0  0  0  0  0  0
   24.7079   74.6516   -4.3260 O   0  0  0  0  0  0  0  0  0  0  0  0
   24.6431   73.6782   -3.5903 C   0  0  0  0  0  0  0  0  0  0  0  0
  1  4  1  0
  1 24  1  0
  1  2  1  6
  1  3  2  0
 25 28  1  0
 25 24  1  0
 25 26  1  1
 25 27  2  0
  6 11  1  0
  6 12  1  0
 29 36  1  0
 29 37  1  0
  9  7  1  6
  7 13  1  0
 10  8  1  6
  8 14  1  0
  4  5  1  0
 36 28  1  6
 33 30  1  1
 30 38  1  0
 34 31  1  1
 31 39  1  0
 35 32  1  6
 32 40  1  0
 41 43  1  0
 15 19  2  0
 42 43  2  0
 16 22  2  0
 12 17  1  1
 17 19  1  0
 17 20  1  0
 18 19  1  0
 18 22  1  0
 18 23  1  0
  9 10  1  0
  9 11  1  0
 10 12  1  0
 11  5  1  1
 33 34  1  0
 33 35  1  0
 34 36  1  0
 35 37  1  0
 37 43  1  6
 20 21  2  0
 21 22  1  0
M  CHG  3   2  -1  26  -1  41  -1
M  END
>  <COMPND>  (83) 
    udp_gluA.pdb 

>  <AUTHOR>  (83) 
    GENERATED BY OPEN BABEL 3.1.1

>  <MASTER>  (83) 
        0    0    0    0    0    0    0    0   56    0   56    0

>  <minimizedAffinity>  (83) 
-7.14463

>  <CNNscore>  (83) 
0.7114129663

>  <CNNaffinity>  (83) 
4.4116506577

>  <CNN_VS>  (83) 
3.1385054588

>  <CNNaffinity_variance>  (83) 
0.1444113553

$$$$
84
     RDKit          3D

 43 45  0  0  0  0  0  0  0  0999 V2000
   19.7479   71.3626   -1.5323 P   0  0  2  0  0  0  0  0  0  0  0  0
   19.7487   69.7459   -1.6041 O   0  0  0  0  0  0  0  0  0  0  0  0
   18.5431   71.9669   -0.8728 O   0  0  0  0  0  0  0  0  0  0  0  0
   20.0154   71.8196   -3.0612 O   0  0  0  0  0  0  0  0  0  0  0  0
   21.0012   72.8050   -3.3097 C   0  0  0  0  0  0  0  0  0  0  0  0
   21.5124   71.0613   -4.8833 O   0  0  0  0  0  0  0  0  0  0  0  0
   23.8062   72.7816   -5.7611 O   0  0  0  0  0  0  0  0  0  0  0  0
   21.9434   73.2377   -7.6996 O   0  0  0  0  0  0  0  0  0  0  0  0
   22.4996   73.1669   -5.3337 C   0  0  1  0  0  0  0  0  0  0  0  0
   21.4844   72.8676   -6.4163 C   0  0  2  0  0  0  0  0  0  0  0  0
   22.0699   72.2183   -4.2229 C   0  0  1  0  0  0  0  0  0  0  0  0
   21.3017   71.3664   -6.2710 C   0  0  2  0  0  0  0  0  0  0  0  0
   24.1023   73.3736   -6.4708 H   0  0  0  0  0  0  0  0  0  0  0  0
   22.0434   74.2022   -7.7415 H   0  0  0  0  0  0  0  0  0  0  0  0
   20.7378   68.9327   -7.5883 O   0  0  0  0  0  0  0  0  0  0  0  0
   16.2149   69.8159   -7.6739 O   0  0  0  0  0  0  0  0  0  0  0  0
   19.9857   70.9354   -6.6493 N   0  0  0  0  0  0  0  0  0  0  0  0
   18.4858   69.3754   -7.6306 N   0  0  0  0  0  0  0  0  0  0  0  0
   19.8111   69.6950   -7.3074 C   0  0  0  0  0  0  0  0  0  0  0  0
   18.8857   71.7362   -6.3670 C   0  0  0  0  0  0  0  0  0  0  0  0
   17.6284   71.4180   -6.6811 C   0  0  0  0  0  0  0  0  0  0  0  0
   17.3595   70.1393   -7.3711 C   0  0  0  0  0  0  0  0  0  0  0  0
   18.3394   68.5176   -8.0911 H   0  0  0  0  0  0  0  0  0  0  0  0
   21.1519   71.6941   -0.8030 O   0  0  0  0  0  0  0  0  0  0  0  0
   22.2673   70.7197   -0.1549 P   0  0  2  0  0  0  0  0  0  0  0  0
   23.2751   70.4381   -1.3900 O   0  0  0  0  0  0  0  0  0  0  0  0
   21.7076   69.4805    0.4815 O   0  0  0  0  0  0  0  0  0  0  0  0
   23.1056   71.6665    0.8468 O   0  0  0  0  0  0  0  0  0  0  0  0
   24.9031   71.2695    2.3369 O   0  0  0  0  0  0  0  0  0  0  0  0
   22.6496   74.0124    4.4502 O   0  0  0  0  0  0  0  0  0  0  0  0
   21.3522   71.8337    2.9994 O   0  0  0  0  0  0  0  0  0  0  0  0
   25.1071   74.8440    3.1388 O   0  0  0  0  0  0  0  0  0  0  0  0
   23.1896   73.3924    3.2831 C   0  0  2  0  0  0  0  0  0  0  0  0
   22.7526   71.9282    3.2328 C   0  0  2  0  0  0  0  0  0  0  0  0
   24.7149   73.4904    3.3584 C   0  0  1  0  0  0  0  0  0  0  0  0
   23.4936   71.1738    2.1279 C   0  0  1  0  0  0  0  0  0  0  0  0
   25.3823   72.6120    2.3041 C   0  0  1  0  0  0  0  0  0  0  0  0
   21.6810   73.9622    4.4244 H   0  0  0  0  0  0  0  0  0  0  0  0
   20.8758   72.3105    3.6966 H   0  0  0  0  0  0  0  0  0  0  0  0
   24.6890   75.4137    3.8032 H   0  0  0  0  0  0  0  0  0  0  0  0
   27.4510   73.6646    2.6422 O   0  0  0  0  0  0  0  0  0  0  0  0
   27.4113   71.3877    2.7578 O   0  0  0  0  0  0  0  0  0  0  0  0
   26.8403   72.4549    2.5901 C   0  0  0  0  0  0  0  0  0  0  0  0
  1  4  1  0
  1 24  1  0
  1  2  1  6
  1  3  2  0
 25 28  1  0
 25 24  1  0
 25 26  1  6
 25 27  2  0
  6 11  1  0
  6 12  1  0
 29 36  1  0
 29 37  1  0
  9  7  1  6
  7 13  1  0
 10  8  1  6
  8 14  1  0
  4  5  1  0
 36 28  1  6
 33 30  1  1
 30 38  1  0
 34 31  1  6
 31 39  1  0
 35 32  1  6
 32 40  1  0
 41 43  1  0
 15 19  2  0
 42 43  2  0
 16 22  2  0
 12 17  1  1
 17 19  1  0
 17 20  1  0
 18 19  1  0
 18 22  1  0
 18 23  1  0
  9 10  1  0
  9 11  1  0
 10 12  1  0
 11  5  1  1
 33 34  1  0
 33 35  1  0
 34 36  1  0
 35 37  1  0
 37 43  1  1
 20 21  2  0
 21 22  1  0
M  CHG  3   2  -1  26  -1  41  -1
M  END
>  <COMPND>  (84) 
    udp_gluA.pdb 

>  <AUTHOR>  (84) 
    GENERATED BY OPEN BABEL 3.1.1

>  <MASTER>  (84) 
        0    0    0    0    0    0    0    0   56    0   56    0

>  <minimizedAffinity>  (84) 
-7.62137

>  <CNNscore>  (84) 
0.6153836250

>  <CNNaffinity>  (84) 
4.3060388565

>  <CNN_VS>  (84) 
2.6498658657

>  <CNNaffinity_variance>  (84) 
0.0307282247

$$$$
85
     RDKit          3D

 43 45  0  0  0  0  0  0  0  0999 V2000
   22.8011   73.6669   -5.7480 P   0  0  2  0  0  0  0  0  0  0  0  0
   23.0886   75.0630   -6.5141 O   0  0  0  0  0  0  0  0  0  0  0  0
   23.5908   72.4940   -6.2507 O   0  0  0  0  0  0  0  0  0  0  0  0
   21.1920   73.5112   -5.8148 O   0  0  0  0  0  0  0  0  0  0  0  0
   20.5772   72.5037   -5.0328 C   0  0  0  0  0  0  0  0  0  0  0  0
   19.5493   70.3360   -5.1827 O   0  0  0  0  0  0  0  0  0  0  0  0
   20.2211   70.4250   -8.1037 O   0  0  0  0  0  0  0  0  0  0  0  0
   17.5736   71.0779   -8.0811 O   0  0  0  0  0  0  0  0  0  0  0  0
   19.8172   71.4850   -7.2367 C   0  0  1  0  0  0  0  0  0  0  0  0
   18.3380   71.3781   -6.9321 C   0  0  2  0  0  0  0  0  0  0  0  0
   20.4425   71.2386   -5.8705 C   0  0  1  0  0  0  0  0  0  0  0  0
   18.3080   70.2621   -5.9018 C   0  0  2  0  0  0  0  0  0  0  0  0
   19.8338   70.5606   -8.9831 H   0  0  0  0  0  0  0  0  0  0  0  0
   17.6246   71.8188   -8.7060 H   0  0  0  0  0  0  0  0  0  0  0  0
   17.1356   68.1193   -4.4839 O   0  0  0  0  0  0  0  0  0  0  0  0
   14.1457   70.9163   -2.3671 O   0  0  0  0  0  0  0  0  0  0  0  0
   17.2218   70.4021   -4.9737 N   0  0  0  0  0  0  0  0  0  0  0  0
   15.6469   69.5143   -3.4317 N   0  0  0  0  0  0  0  0  0  0  0  0
   16.7056   69.2617   -4.3140 C   0  0  0  0  0  0  0  0  0  0  0  0
   16.6805   71.6573   -4.7238 C   0  0  0  0  0  0  0  0  0  0  0  0
   15.6715   71.8823   -3.8800 C   0  0  0  0  0  0  0  0  0  0  0  0
   15.0743   70.7442   -3.1508 C   0  0  0  0  0  0  0  0  0  0  0  0
   15.2696   68.7355   -2.9622 H   0  0  0  0  0  0  0  0  0  0  0  0
   23.0658   74.0423   -4.1982 O   0  0  0  0  0  0  0  0  0  0  0  0
   24.1349   73.4622   -3.1332 P   0  0  2  0  0  0  0  0  0  0  0  0
   24.5330   74.7664   -2.2610 O   0  0  0  0  0  0  0  0  0  0  0  0
   25.3033   72.7549   -3.7565 O   0  0  0  0  0  0  0  0  0  0  0  0
   23.2597   72.5523   -2.1288 O   0  0  0  0  0  0  0  0  0  0  0  0
   20.9453   72.5968   -1.6282 O   0  0  0  0  0  0  0  0  0  0  0  0
   22.5673   71.4515    1.9947 O   0  0  0  0  0  0  0  0  0  0  0  0
   23.8314   73.5503    0.4036 O   0  0  0  0  0  0  0  0  0  0  0  0
   21.2422   69.4923    0.3046 O   0  0  0  0  0  0  0  0  0  0  0  0
   22.4867   71.5379    0.5720 C   0  0  2  0  0  0  0  0  0  0  0  0
   22.5430   73.0047    0.1444 C   0  0  2  0  0  0  0  0  0  0  0  0
   21.1635   70.9062    0.1340 C   0  0  1  0  0  0  0  0  0  0  0  0
   22.2300   73.1526   -1.3452 C   0  0  1  0  0  0  0  0  0  0  0  0
   20.8619   71.2046   -1.3317 C   0  0  1  0  0  0  0  0  0  0  0  0
   23.4003   71.8470    2.2962 H   0  0  0  0  0  0  0  0  0  0  0  0
   24.0366   73.4595    1.3470 H   0  0  0  0  0  0  0  0  0  0  0  0
   21.4339   69.2888    1.2334 H   0  0  0  0  0  0  0  0  0  0  0  0
   19.2798   69.5376   -1.8003 O   0  0  0  0  0  0  0  0  0  0  0  0
   18.5426   71.6952   -1.7805 O   0  0  0  0  0  0  0  0  0  0  0  0
   19.4414   70.8765   -1.6585 C   0  0  0  0  0  0  0  0  0  0  0  0
  1  4  1  0
  1 24  1  0
  1  2  1  6
  1  3  2  0
 25 28  1  0
 25 24  1  0
 25 26  1  1
 25 27  2  0
  6 11  1  0
  6 12  1  0
 29 36  1  0
 29 37  1  0
  9  7  1  6
  7 13  1  0
 10  8  1  6
  8 14  1  0
  4  5  1  0
 36 28  1  6
 33 30  1  1
 30 38  1  0
 34 31  1  6
 31 39  1  0
 35 32  1  6
 32 40  1  0
 41 43  1  0
 15 19  2  0
 42 43  2  0
 16 22  2  0
 12 17  1  1
 17 19  1  0
 17 20  1  0
 18 19  1  0
 18 22  1  0
 18 23  1  0
  9 10  1  0
  9 11  1  0
 10 12  1  0
 11  5  1  1
 33 34  1  0
 33 35  1  0
 34 36  1  0
 35 37  1  0
 37 43  1  1
 20 21  2  0
 21 22  1  0
M  CHG  3   2  -1  26  -1  41  -1
M  END
>  <COMPND>  (85) 
    udp_gluA.pdb 

>  <AUTHOR>  (85) 
    GENERATED BY OPEN BABEL 3.1.1

>  <MASTER>  (85) 
        0    0    0    0    0    0    0    0   56    0   56    0

>  <minimizedAffinity>  (85) 
-7.15692

>  <CNNscore>  (85) 
0.5962172151

>  <CNNaffinity>  (85) 
4.2890310287

>  <CNN_VS>  (85) 
2.5571942329

>  <CNNaffinity_variance>  (85) 
0.4330891967

$$$$
86
     RDKit          3D

 43 45  0  0  0  0  0  0  0  0999 V2000
   23.5812   72.3039   -3.7105 P   0  0  2  0  0  0  0  0  0  0  0  0
   24.1460   72.7630   -5.1559 O   0  0  0  0  0  0  0  0  0  0  0  0
   24.4601   71.3451   -2.9622 O   0  0  0  0  0  0  0  0  0  0  0  0
   22.0824   71.7826   -4.0268 O   0  0  0  0  0  0  0  0  0  0  0  0
   21.2906   72.5164   -4.9428 C   0  0  0  0  0  0  0  0  0  0  0  0
   20.3501   70.4220   -5.6544 O   0  0  0  0  0  0  0  0  0  0  0  0
   20.1458   71.6527   -8.3811 O   0  0  0  0  0  0  0  0  0  0  0  0
   17.5939   71.8578   -7.4421 O   0  0  0  0  0  0  0  0  0  0  0  0
   19.9677   72.2586   -7.1006 C   0  0  1  0  0  0  0  0  0  0  0  0
   18.6449   71.8335   -6.4991 C   0  0  2  0  0  0  0  0  0  0  0  0
   20.9701   71.6320   -6.1409 C   0  0  1  0  0  0  0  0  0  0  0  0
   18.9580   70.4302   -6.0084 C   0  0  2  0  0  0  0  0  0  0  0  0
   19.5160   72.0371   -9.0114 H   0  0  0  0  0  0  0  0  0  0  0  0
   17.4328   72.7727   -7.7232 H   0  0  0  0  0  0  0  0  0  0  0  0
   16.3606   69.3268   -6.1210 O   0  0  0  0  0  0  0  0  0  0  0  0
   16.0721   69.0718   -1.5280 O   0  0  0  0  0  0  0  0  0  0  0  0
   18.1813   70.0662   -4.8573 N   0  0  0  0  0  0  0  0  0  0  0  0
   16.2190   69.2018   -3.8333 N   0  0  0  0  0  0  0  0  0  0  0  0
   16.8868   69.5196   -5.0233 C   0  0  0  0  0  0  0  0  0  0  0  0
   18.7028   70.2496   -3.5824 C   0  0  0  0  0  0  0  0  0  0  0  0
   18.0544   69.9418   -2.4575 C   0  0  0  0  0  0  0  0  0  0  0  0
   16.6959   69.3666   -2.5430 C   0  0  0  0  0  0  0  0  0  0  0  0
   15.3152   68.8218   -3.9234 H   0  0  0  0  0  0  0  0  0  0  0  0
   23.3251   73.7110   -2.9573 O   0  0  0  0  0  0  0  0  0  0  0  0
   24.3128   74.6370   -2.0737 P   0  0  2  0  0  0  0  0  0  0  0  0
   23.3802   75.8996   -1.6779 O   0  0  0  0  0  0  0  0  0  0  0  0
   25.5930   75.0066   -2.7654 O   0  0  0  0  0  0  0  0  0  0  0  0
   24.5077   73.8261   -0.6928 O   0  0  0  0  0  0  0  0  0  0  0  0
   22.5200   72.8376    0.1323 O   0  0  0  0  0  0  0  0  0  0  0  0
   25.1182   72.2653    3.2929 O   0  0  0  0  0  0  0  0  0  0  0  0
   25.0814   74.8036    1.8471 O   0  0  0  0  0  0  0  0  0  0  0  0
   24.4272   70.0428    1.5512 O   0  0  0  0  0  0  0  0  0  0  0  0
   24.7438   72.4022    1.9222 C   0  0  2  0  0  0  0  0  0  0  0  0
   24.1090   73.7753    1.6997 C   0  0  2  0  0  0  0  0  0  0  0  0
   23.7422   71.2932    1.5925 C   0  0  1  0  0  0  0  0  0  0  0  0
   23.4894   73.8720    0.3049 C   0  0  1  0  0  0  0  0  0  0  0  0
   23.0752   71.5287    0.2404 C   0  0  1  0  0  0  0  0  0  0  0  0
   25.7545   72.9599    3.5254 H   0  0  0  0  0  0  0  0  0  0  0  0
   25.4789   74.7480    2.7299 H   0  0  0  0  0  0  0  0  0  0  0  0
   24.8564   69.8808    2.4059 H   0  0  0  0  0  0  0  0  0  0  0  0
   20.9349   71.2532   -0.6787 O   0  0  0  0  0  0  0  0  0  0  0  0
   21.7697   69.5235    0.5502 O   0  0  0  0  0  0  0  0  0  0  0  0
   21.8826   70.6438    0.0758 C   0  0  0  0  0  0  0  0  0  0  0  0
  1  4  1  0
  1 24  1  0
  1  2  1  6
  1  3  2  0
 25 28  1  0
 25 24  1  0
 25 26  1  1
 25 27  2  0
  6 11  1  0
  6 12  1  0
 29 36  1  0
 29 37  1  0
  9  7  1  6
  7 13  1  0
 10  8  1  6
  8 14  1  0
  4  5  1  0
 36 28  1  6
 33 30  1  1
 30 38  1  0
 34 31  1  6
 31 39  1  0
 35 32  1  6
 32 40  1  0
 41 43  1  0
 15 19  2  0
 42 43  2  0
 16 22  2  0
 12 17  1  1
 17 19  1  0
 17 20  1  0
 18 19  1  0
 18 22  1  0
 18 23  1  0
  9 10  1  0
  9 11  1  0
 10 12  1  0
 11  5  1  1
 33 34  1  0
 33 35  1  0
 34 36  1  0
 35 37  1  0
 37 43  1  1
 20 21  2  0
 21 22  1  0
M  CHG  3   2  -1  26  -1  41  -1
M  END
>  <COMPND>  (86) 
    udp_gluA.pdb 

>  <AUTHOR>  (86) 
    GENERATED BY OPEN BABEL 3.1.1

>  <MASTER>  (86) 
        0    0    0    0    0    0    0    0   56    0   56    0

>  <minimizedAffinity>  (86) 
-7.22716

>  <CNNscore>  (86) 
0.5662817359

>  <CNNaffinity>  (86) 
4.3369760513

>  <CNN_VS>  (86) 
2.4559502602

>  <CNNaffinity_variance>  (86) 
0.3020410836

$$$$
87
     RDKit          3D

 43 45  0  0  0  0  0  0  0  0999 V2000
   22.7660   74.0866   -2.7373 P   0  0  2  0  0  0  0  0  0  0  0  0
   21.5006   73.5947   -1.8565 O   0  0  0  0  0  0  0  0  0  0  0  0
   23.7011   75.0257   -2.0335 O   0  0  0  0  0  0  0  0  0  0  0  0
   22.0965   74.6503   -4.0981 O   0  0  0  0  0  0  0  0  0  0  0  0
   20.8397   74.1349   -4.4973 C   0  0  0  0  0  0  0  0  0  0  0  0
   20.9306   71.8542   -5.2507 O   0  0  0  0  0  0  0  0  0  0  0  0
   20.5082   72.9447   -8.0118 O   0  0  0  0  0  0  0  0  0  0  0  0
   18.0216   72.0516   -7.3370 O   0  0  0  0  0  0  0  0  0  0  0  0
   19.9671   73.3952   -6.7697 C   0  0  1  0  0  0  0  0  0  0  0  0
   18.8874   72.4467   -6.2935 C   0  0  2  0  0  0  0  0  0  0  0  0
   21.0374   73.2222   -5.7007 C   0  0  1  0  0  0  0  0  0  0  0  0
   19.7041   71.2906   -5.7419 C   0  0  2  0  0  0  0  0  0  0  0  0
   19.8423   73.0456   -8.7105 H   0  0  0  0  0  0  0  0  0  0  0  0
   17.5242   72.8224   -7.6538 H   0  0  0  0  0  0  0  0  0  0  0  0
   17.6407   69.3932   -6.0868 O   0  0  0  0  0  0  0  0  0  0  0  0
   17.2193   68.7545   -1.5417 O   0  0  0  0  0  0  0  0  0  0  0  0
   19.0376   70.6131   -4.6659 N   0  0  0  0  0  0  0  0  0  0  0  0
   17.4321   69.0777   -3.8227 N   0  0  0  0  0  0  0  0  0  0  0  0
   18.0138   69.6779   -4.9472 C   0  0  0  0  0  0  0  0  0  0  0  0
   19.4004   70.8758   -3.3505 C   0  0  0  0  0  0  0  0  0  0  0  0
   18.8369   70.2957   -2.2890 C   0  0  0  0  0  0  0  0  0  0  0  0
   17.7584   69.3069   -2.4959 C   0  0  0  0  0  0  0  0  0  0  0  0
   16.7155   68.4245   -3.9933 H   0  0  0  0  0  0  0  0  0  0  0  0
   23.4396   72.6962   -3.2126 O   0  0  0  0  0  0  0  0  0  0  0  0
   23.6860   71.3099   -2.4181 P   0  0  2  0  0  0  0  0  0  0  0  0
   25.2222   70.9465   -2.7760 O   0  0  0  0  0  0  0  0  0  0  0  0
   22.7008   70.2267   -2.7498 O   0  0  0  0  0  0  0  0  0  0  0  0
   23.7192   71.7308   -0.8611 O   0  0  0  0  0  0  0  0  0  0  0  0
   25.1087   71.0281    0.9235 O   0  0  0  0  0  0  0  0  0  0  0  0
   21.5040   71.6285    2.8507 O   0  0  0  0  0  0  0  0  0  0  0  0
   21.5872   70.3231    0.2385 O   0  0  0  0  0  0  0  0  0  0  0  0
   23.6521   73.5662    3.1367 O   0  0  0  0  0  0  0  0  0  0  0  0
   22.5113   71.8656    1.8673 C   0  0  2  0  0  0  0  0  0  0  0  0
   22.7293   70.5973    1.0418 C   0  0  2  0  0  0  0  0  0  0  0  0
   23.8001   72.2552    2.5948 C   0  0  1  0  0  0  0  0  0  0  0  0
   23.9533   70.7378    0.1358 C   0  0  1  0  0  0  0  0  0  0  0  0
   24.9971   72.2509    1.6484 C   0  0  1  0  0  0  0  0  0  0  0  0
   20.6755   71.3792    2.4116 H   0  0  0  0  0  0  0  0  0  0  0  0
   20.8067   70.2330    0.8069 H   0  0  0  0  0  0  0  0  0  0  0  0
   22.8933   73.5827    3.7408 H   0  0  0  0  0  0  0  0  0  0  0  0
   26.4487   73.5269    2.9774 O   0  0  0  0  0  0  0  0  0  0  0  0
   27.0696   71.3801    2.5247 O   0  0  0  0  0  0  0  0  0  0  0  0
   26.2789   72.3051    2.4141 C   0  0  0  0  0  0  0  0  0  0  0  0
  1  4  1  0
  1 24  1  0
  1  2  1  1
  1  3  2  0
 25 28  1  0
 25 24  1  0
 25 26  1  6
 25 27  2  0
  6 11  1  0
  6 12  1  0
 29 36  1  0
 29 37  1  0
  9  7  1  6
  7 13  1  0
 10  8  1  6
  8 14  1  0
  4  5  1  0
 36 28  1  6
 33 30  1  1
 30 38  1  0
 34 31  1  6
 31 39  1  0
 35 32  1  6
 32 40  1  0
 41 43  1  0
 15 19  2  0
 42 43  2  0
 16 22  2  0
 12 17  1  1
 17 19  1  0
 17 20  1  0
 18 19  1  0
 18 22  1  0
 18 23  1  0
  9 10  1  0
  9 11  1  0
 10 12  1  0
 11  5  1  1
 33 34  1  0
 33 35  1  0
 34 36  1  0
 35 37  1  0
 37 43  1  1
 20 21  2  0
 21 22  1  0
M  CHG  3   2  -1  26  -1  41  -1
M  END
>  <COMPND>  (87) 
    udp_gluA.pdb 

>  <AUTHOR>  (87) 
    GENERATED BY OPEN BABEL 3.1.1

>  <MASTER>  (87) 
        0    0    0    0    0    0    0    0   56    0   56    0

>  <minimizedAffinity>  (87) 
-7.67782

>  <CNNscore>  (87) 
0.5269874930

>  <CNNaffinity>  (87) 
4.1653008461

>  <CNN_VS>  (87) 
2.1950614452

>  <CNNaffinity_variance>  (87) 
0.2890922129

$$$$
88
     RDKit          3D

 43 45  0  0  0  0  0  0  0  0999 V2000
   21.3237   73.2762   -2.4408 P   0  0  2  0  0  0  0  0  0  0  0  0
   21.1710   73.1460   -4.0466 O   0  0  0  0  0  0  0  0  0  0  0  0
   20.9117   74.6017   -1.8707 O   0  0  0  0  0  0  0  0  0  0  0  0
   22.8549   72.8355   -2.1592 O   0  0  0  0  0  0  0  0  0  0  0  0
   23.6551   73.6614   -1.3333 C   0  0  0  0  0  0  0  0  0  0  0  0
   24.3401   73.1114    0.9042 O   0  0  0  0  0  0  0  0  0  0  0  0
   25.4333   70.5708   -0.2541 O   0  0  0  0  0  0  0  0  0  0  0  0
   23.0764   69.7567    0.8496 O   0  0  0  0  0  0  0  0  0  0  0  0
   24.2578   71.2962   -0.6154 C   0  0  1  0  0  0  0  0  0  0  0  0
   23.1797   71.1011    0.4295 C   0  0  2  0  0  0  0  0  0  0  0  0
   24.5637   72.7820   -0.4839 C   0  0  1  0  0  0  0  0  0  0  0  0
   23.6457   72.0268    1.5402 C   0  0  2  0  0  0  0  0  0  0  0  0
   25.2623   69.6186   -0.3303 H   0  0  0  0  0  0  0  0  0  0  0  0
   22.7763   69.2081    0.1074 H   0  0  0  0  0  0  0  0  0  0  0  0
   23.5916   72.1585    4.3609 O   0  0  0  0  0  0  0  0  0  0  0  0
   19.4024   74.0807    4.3728 O   0  0  0  0  0  0  0  0  0  0  0  0
   22.5534   72.5569    2.3062 N   0  0  0  0  0  0  0  0  0  0  0  0
   21.5048   73.1148    4.3642 N   0  0  0  0  0  0  0  0  0  0  0  0
   22.6262   72.5769    3.7191 C   0  0  0  0  0  0  0  0  0  0  0  0
   21.4275   73.0509    1.6586 C   0  0  0  0  0  0  0  0  0  0  0  0
   20.3664   73.5607    2.2871 C   0  0  0  0  0  0  0  0  0  0  0  0
   20.3619   73.6176    3.7636 C   0  0  0  0  0  0  0  0  0  0  0  0
   21.5314   73.1374    5.3481 H   0  0  0  0  0  0  0  0  0  0  0  0
   20.4756   72.0143   -1.8921 O   0  0  0  0  0  0  0  0  0  0  0  0
   20.6252   70.4300   -2.1776 P   0  0  2  0  0  0  0  0  0  0  0  0
   20.5999   69.7829   -0.6941 O   0  0  0  0  0  0  0  0  0  0  0  0
   21.8314   70.0623   -2.9922 O   0  0  0  0  0  0  0  0  0  0  0  0
   19.2166   69.9978   -2.8345 O   0  0  0  0  0  0  0  0  0  0  0  0
   18.3988   70.8487   -4.8878 O   0  0  0  0  0  0  0  0  0  0  0  0
   14.9134   69.6275   -3.0362 O   0  0  0  0  0  0  0  0  0  0  0  0
   16.9877   71.0169   -1.5192 O   0  0  0  0  0  0  0  0  0  0  0  0
   16.0559   68.0410   -5.1876 O   0  0  0  0  0  0  0  0  0  0  0  0
   16.3045   69.5840   -3.3539 C   0  0  2  0  0  0  0  0  0  0  0  0
   16.9660   70.8978   -2.9370 C   0  0  2  0  0  0  0  0  0  0  0  0
   16.4383   69.3765   -4.8642 C   0  0  1  0  0  0  0  0  0  0  0  0
   18.3985   70.9810   -3.4659 C   0  0  1  0  0  0  0  0  0  0  0  0
   17.8734   69.5999   -5.3322 C   0  0  1  0  0  0  0  0  0  0  0  0
   14.8036   69.7587   -2.0812 H   0  0  0  0  0  0  0  0  0  0  0  0
   16.0820   70.9646   -1.1769 H   0  0  0  0  0  0  0  0  0  0  0  0
   15.1443   67.8858   -4.8948 H   0  0  0  0  0  0  0  0  0  0  0  0
   18.2960   68.5415   -7.3823 O   0  0  0  0  0  0  0  0  0  0  0  0
   17.6886   70.7382   -7.4515 O   0  0  0  0  0  0  0  0  0  0  0  0
   17.9334   69.7211   -6.8202 C   0  0  0  0  0  0  0  0  0  0  0  0
  1  4  1  0
  1 24  1  0
  1  2  1  6
  1  3  2  0
 25 28  1  0
 25 24  1  0
 25 26  1  1
 25 27  2  0
  6 11  1  0
  6 12  1  0
 29 36  1  0
 29 37  1  0
  9  7  1  1
  7 13  1  0
 10  8  1  1
  8 14  1  0
  4  5  1  0
 36 28  1  1
 33 30  1  6
 30 38  1  0
 34 31  1  1
 31 39  1  0
 35 32  1  1
 32 40  1  0
 41 43  1  0
 15 19  2  0
 42 43  2  0
 16 22  2  0
 12 17  1  6
 17 19  1  0
 17 20  1  0
 18 19  1  0
 18 22  1  0
 18 23  1  0
  9 10  1  0
  9 11  1  0
 10 12  1  0
 11  5  1  6
 33 34  1  0
 33 35  1  0
 34 36  1  0
 35 37  1  0
 37 43  1  6
 20 21  2  0
 21 22  1  0
M  CHG  3   2  -1  26  -1  41  -1
M  END
>  <COMPND>  (88) 
    udp_gluA.pdb 

>  <AUTHOR>  (88) 
    GENERATED BY OPEN BABEL 3.1.1

>  <MASTER>  (88) 
        0    0    0    0    0    0    0    0   56    0   56    0

>  <minimizedAffinity>  (88) 
-6.89124

>  <CNNscore>  (88) 
0.5199561119

>  <CNNaffinity>  (88) 
4.1729469299

>  <CNN_VS>  (88) 
2.1697492599

>  <CNNaffinity_variance>  (88) 
0.1423384547

$$$$
89
     RDKit          3D

 43 45  0  0  0  0  0  0  0  0999 V2000
   20.0849   71.0871   -1.6671 P   0  0  2  0  0  0  0  0  0  0  0  0
   19.9741   72.1633   -0.4636 O   0  0  0  0  0  0  0  0  0  0  0  0
   20.5809   69.7306   -1.2602 O   0  0  0  0  0  0  0  0  0  0  0  0
   20.9656   71.8495   -2.7901 O   0  0  0  0  0  0  0  0  0  0  0  0
   21.2097   73.2351   -2.6322 C   0  0  0  0  0  0  0  0  0  0  0  0
   23.3837   73.8189   -1.7891 O   0  0  0  0  0  0  0  0  0  0  0  0
   24.4579   72.8475   -4.4147 O   0  0  0  0  0  0  0  0  0  0  0  0
   24.9735   70.7518   -2.7478 O   0  0  0  0  0  0  0  0  0  0  0  0
   23.3679   72.3437   -3.6423 C   0  0  1  0  0  0  0  0  0  0  0  0
   23.8849   71.5945   -2.4325 C   0  0  2  0  0  0  0  0  0  0  0  0
   22.6576   73.5292   -3.0032 C   0  0  1  0  0  0  0  0  0  0  0  0
   24.2748   72.7297   -1.5013 C   0  0  2  0  0  0  0  0  0  0  0  0
   24.9271   72.1082   -4.8329 H   0  0  0  0  0  0  0  0  0  0  0  0
   24.6740   70.0455   -3.3424 H   0  0  0  0  0  0  0  0  0  0  0  0
   25.8796   70.8104   -0.1908 O   0  0  0  0  0  0  0  0  0  0  0  0
   23.6835   71.4399    3.8123 O   0  0  0  0  0  0  0  0  0  0  0  0
   24.1439   72.3726   -0.1171 N   0  0  0  0  0  0  0  0  0  0  0  0
   24.7836   71.1250    1.8014 N   0  0  0  0  0  0  0  0  0  0  0  0
   25.0002   71.3958    0.4439 C   0  0  0  0  0  0  0  0  0  0  0  0
   23.1777   72.9879    0.6696 C   0  0  0  0  0  0  0  0  0  0  0  0
   22.9833   72.7193    1.9622 C   0  0  0  0  0  0  0  0  0  0  0  0
   23.8354   71.7103    2.6248 C   0  0  0  0  0  0  0  0  0  0  0  0
   25.3663   70.4469    2.2137 H   0  0  0  0  0  0  0  0  0  0  0  0
   18.5984   71.0981   -2.3017 O   0  0  0  0  0  0  0  0  0  0  0  0
   17.6666   69.8932   -2.8435 P   0  0  2  0  0  0  0  0  0  0  0  0
   16.1689   70.4904   -2.6996 O   0  0  0  0  0  0  0  0  0  0  0  0
   17.8808   68.5847   -2.1392 O   0  0  0  0  0  0  0  0  0  0  0  0
   17.9367   69.8499   -4.4333 O   0  0  0  0  0  0  0  0  0  0  0  0
   18.7681   71.7938   -5.5005 O   0  0  0  0  0  0  0  0  0  0  0  0
   17.4371   69.5719   -8.7191 O   0  0  0  0  0  0  0  0  0  0  0  0
   15.8518   69.7276   -6.2702 O   0  0  0  0  0  0  0  0  0  0  0  0
   20.2824   69.7625   -8.1544 O   0  0  0  0  0  0  0  0  0  0  0  0
   17.9881   69.7815   -7.4189 C   0  0  2  0  0  0  0  0  0  0  0  0
   16.9832   70.5426   -6.5539 C   0  0  2  0  0  0  0  0  0  0  0  0
   19.2764   70.5922   -7.5763 C   0  0  1  0  0  0  0  0  0  0  0  0
   17.6207   70.9857   -5.2363 C   0  0  1  0  0  0  0  0  0  0  0  0
   19.7806   71.1040   -6.2301 C   0  0  1  0  0  0  0  0  0  0  0  0
   16.6173   69.0586   -8.6442 H   0  0  0  0  0  0  0  0  0  0  0  0
   15.4425   69.4426   -7.1019 H   0  0  0  0  0  0  0  0  0  0  0  0
   19.9740   69.4300   -9.0118 H   0  0  0  0  0  0  0  0  0  0  0  0
   20.3741   73.3633   -6.0179 O   0  0  0  0  0  0  0  0  0  0  0  0
   21.9471   71.9503   -6.8712 O   0  0  0  0  0  0  0  0  0  0  0  0
   20.8296   72.1508   -6.4196 C   0  0  0  0  0  0  0  0  0  0  0  0
  1  4  1  0
  1 24  1  0
  1  2  1  1
  1  3  2  0
 25 28  1  0
 25 24  1  0
 25 26  1  6
 25 27  2  0
  6 11  1  0
  6 12  1  0
 29 36  1  0
 29 37  1  0
  9  7  1  6
  7 13  1  0
 10  8  1  6
  8 14  1  0
  4  5  1  0
 36 28  1  6
 33 30  1  6
 30 38  1  0
 34 31  1  1
 31 39  1  0
 35 32  1  1
 32 40  1  0
 41 43  1  0
 15 19  2  0
 42 43  2  0
 16 22  2  0
 12 17  1  1
 17 19  1  0
 17 20  1  0
 18 19  1  0
 18 22  1  0
 18 23  1  0
  9 10  1  0
  9 11  1  0
 10 12  1  0
 11  5  1  1
 33 34  1  0
 33 35  1  0
 34 36  1  0
 35 37  1  0
 37 43  1  6
 20 21  2  0
 21 22  1  0
M  CHG  3   2  -1  26  -1  41  -1
M  END
>  <COMPND>  (89) 
    udp_gluA.pdb 

>  <AUTHOR>  (89) 
    GENERATED BY OPEN BABEL 3.1.1

>  <MASTER>  (89) 
        0    0    0    0    0    0    0    0   56    0   56    0

>  <minimizedAffinity>  (89) 
-7.46400

>  <CNNscore>  (89) 
0.5065954924

>  <CNNaffinity>  (89) 
4.2608175278

>  <CNN_VS>  (89) 
2.1585109234

>  <CNNaffinity_variance>  (89) 
0.3957250714

$$$$
90
     RDKit          3D

 43 45  0  0  0  0  0  0  0  0999 V2000
   20.6895   70.5520   -2.1712 P   0  0  2  0  0  0  0  0  0  0  0  0
   21.9589   70.0725   -3.0530 O   0  0  0  0  0  0  0  0  0  0  0  0
   20.4561   72.0342   -2.1504 O   0  0  0  0  0  0  0  0  0  0  0  0
   20.9337   69.8589   -0.7297 O   0  0  0  0  0  0  0  0  0  0  0  0
   21.6013   70.6021    0.2735 C   0  0  0  0  0  0  0  0  0  0  0  0
   22.7981   72.6820    0.4130 O   0  0  0  0  0  0  0  0  0  0  0  0
   24.7745   71.4576   -1.4808 O   0  0  0  0  0  0  0  0  0  0  0  0
   26.0232   71.2036    0.9300 O   0  0  0  0  0  0  0  0  0  0  0  0
   24.0359   70.8440   -0.4241 C   0  0  1  0  0  0  0  0  0  0  0  0
   24.6115   71.2432    0.9182 C   0  0  2  0  0  0  0  0  0  0  0  0
   22.6554   71.4850   -0.3821 C   0  0  1  0  0  0  0  0  0  0  0  0
   24.0646   72.6501    1.0900 C   0  0  2  0  0  0  0  0  0  0  0  0
   25.6604   71.0643   -1.5273 H   0  0  0  0  0  0  0  0  0  0  0  0
   26.3218   70.2869    0.8176 H   0  0  0  0  0  0  0  0  0  0  0  0
   24.1228   75.2882    2.0968 O   0  0  0  0  0  0  0  0  0  0  0  0
   23.2886   73.8595    6.3988 O   0  0  0  0  0  0  0  0  0  0  0  0
   23.8657   72.9960    2.4690 N   0  0  0  0  0  0  0  0  0  0  0  0
   23.7083   74.5740    4.2386 N   0  0  0  0  0  0  0  0  0  0  0  0
   23.9150   74.3519    2.8708 C   0  0  0  0  0  0  0  0  0  0  0  0
   23.6236   71.9991    3.4062 C   0  0  0  0  0  0  0  0  0  0  0  0
   23.4284   72.2263    4.7066 C   0  0  0  0  0  0  0  0  0  0  0  0
   23.4647   73.6155    5.2089 C   0  0  0  0  0  0  0  0  0  0  0  0
   23.7400   75.5099    4.5426 H   0  0  0  0  0  0  0  0  0  0  0  0
   19.4714   69.6871   -2.7886 O   0  0  0  0  0  0  0  0  0  0  0  0
   17.8815   69.7364   -2.4998 P   0  0  2  0  0  0  0  0  0  0  0  0
   17.6723   71.1952   -1.8301 O   0  0  0  0  0  0  0  0  0  0  0  0
   17.3709   68.5953   -1.6684 O   0  0  0  0  0  0  0  0  0  0  0  0
   17.2040   69.8573   -3.9588 O   0  0  0  0  0  0  0  0  0  0  0  0
   18.4465   71.2285   -5.4371 O   0  0  0  0  0  0  0  0  0  0  0  0
   15.0235   70.5085   -7.6353 O   0  0  0  0  0  0  0  0  0  0  0  0
   14.8527   71.0963   -4.7788 O   0  0  0  0  0  0  0  0  0  0  0  0
   17.4945   69.1227   -8.2869 O   0  0  0  0  0  0  0  0  0  0  0  0
   16.0532   70.2112   -6.6923 C   0  0  2  0  0  0  0  0  0  0  0  0
   16.0290   71.2443   -5.5655 C   0  0  2  0  0  0  0  0  0  0  0  0
   17.3948   70.2565   -7.4271 C   0  0  1  0  0  0  0  0  0  0  0  0
   17.2542   71.0974   -4.6621 C   0  0  1  0  0  0  0  0  0  0  0  0
   18.5664   70.2319   -6.4497 C   0  0  1  0  0  0  0  0  0  0  0  0
   14.1614   70.4856   -7.1909 H   0  0  0  0  0  0  0  0  0  0  0  0
   14.0713   71.1881   -5.3457 H   0  0  0  0  0  0  0  0  0  0  0  0
   16.7544   69.1263   -8.9139 H   0  0  0  0  0  0  0  0  0  0  0  0
   20.8019   70.9078   -6.2324 O   0  0  0  0  0  0  0  0  0  0  0  0
   19.9998   70.6320   -8.3489 O   0  0  0  0  0  0  0  0  0  0  0  0
   19.8392   70.6044   -7.1379 C   0  0  0  0  0  0  0  0  0  0  0  0
  1  4  1  0
  1 24  1  0
  1  2  1  6
  1  3  2  0
 25 28  1  0
 25 24  1  0
 25 26  1  1
 25 27  2  0
  6 11  1  0
  6 12  1  0
 29 36  1  0
 29 37  1  0
  9  7  1  6
  7 13  1  0
 10  8  1  6
  8 14  1  0
  4  5  1  0
 36 28  1  6
 33 30  1  6
 30 38  1  0
 34 31  1  1
 31 39  1  0
 35 32  1  6
 32 40  1  0
 41 43  1  0
 15 19  2  0
 42 43  2  0
 16 22  2  0
 12 17  1  1
 17 19  1  0
 17 20  1  0
 18 19  1  0
 18 22  1  0
 18 23  1  0
  9 10  1  0
  9 11  1  0
 10 12  1  0
 11  5  1  1
 33 34  1  0
 33 35  1  0
 34 36  1  0
 35 37  1  0
 37 43  1  6
 20 21  2  0
 21 22  1  0
M  CHG  3   2  -1  26  -1  41  -1
M  END
>  <COMPND>  (90) 
    udp_gluA.pdb 

>  <AUTHOR>  (90) 
    GENERATED BY OPEN BABEL 3.1.1

>  <MASTER>  (90) 
        0    0    0    0    0    0    0    0   56    0   56    0

>  <minimizedAffinity>  (90) 
-7.45713

>  <CNNscore>  (90) 
0.4930642247

>  <CNNaffinity>  (90) 
4.2627058029

>  <CNN_VS>  (90) 
2.1017878056

>  <CNNaffinity_variance>  (90) 
0.0840692893

$$$$
91
     RDKit          3D

 43 45  0  0  0  0  0  0  0  0999 V2000
   18.5561   73.4979   -1.7929 P   0  0  2  0  0  0  0  0  0  0  0  0
   19.3789   74.8542   -1.4731 O   0  0  0  0  0  0  0  0  0  0  0  0
   17.0968   73.6952   -2.0813 O   0  0  0  0  0  0  0  0  0  0  0  0
   18.9007   72.5305   -0.5425 O   0  0  0  0  0  0  0  0  0  0  0  0
   20.1836   72.6217    0.0494 C   0  0  0  0  0  0  0  0  0  0  0  0
   21.5033   71.2863   -1.4515 O   0  0  0  0  0  0  0  0  0  0  0  0
   22.3023   69.6967    0.9623 O   0  0  0  0  0  0  0  0  0  0  0  0
   24.4673   71.3065    0.5655 O   0  0  0  0  0  0  0  0  0  0  0  0
   22.0606   71.0988    0.8431 C   0  0  1  0  0  0  0  0  0  0  0  0
   23.2095   71.7691    0.1199 C   0  0  2  0  0  0  0  0  0  0  0  0
   20.9103   71.2957   -0.1348 C   0  0  1  0  0  0  0  0  0  0  0  0
   22.9298   71.3999   -1.3270 C   0  0  2  0  0  0  0  0  0  0  0  0
   23.0335   69.5459    1.5822 H   0  0  0  0  0  0  0  0  0  0  0  0
   24.5980   71.5668    1.4913 H   0  0  0  0  0  0  0  0  0  0  0  0
   25.2237   71.1135   -2.9494 O   0  0  0  0  0  0  0  0  0  0  0  0
   24.6438   75.2849   -4.8221 O   0  0  0  0  0  0  0  0  0  0  0  0
   23.4010   72.3955   -2.2476 N   0  0  0  0  0  0  0  0  0  0  0  0
   24.9333   73.1918   -3.8798 N   0  0  0  0  0  0  0  0  0  0  0  0
   24.5643   72.1525   -3.0156 C   0  0  0  0  0  0  0  0  0  0  0  0
   22.7130   73.5951   -2.3839 C   0  0  0  0  0  0  0  0  0  0  0  0
   23.0769   74.5762   -3.2120 C   0  0  0  0  0  0  0  0  0  0  0  0
   24.2817   74.4026   -4.0497 C   0  0  0  0  0  0  0  0  0  0  0  0
   25.7412   73.0465   -4.4234 H   0  0  0  0  0  0  0  0  0  0  0  0
   19.3990   72.8394   -3.0048 O   0  0  0  0  0  0  0  0  0  0  0  0
   19.3358   73.0901   -4.6007 P   0  0  2  0  0  0  0  0  0  0  0  0
   20.7343   72.4688   -5.1284 O   0  0  0  0  0  0  0  0  0  0  0  0
   19.1090   74.5220   -4.9906 O   0  0  0  0  0  0  0  0  0  0  0  0
   18.2088   72.0651   -5.1316 O   0  0  0  0  0  0  0  0  0  0  0  0
   18.5807   70.0168   -4.0022 O   0  0  0  0  0  0  0  0  0  0  0  0
   15.2318   69.1380   -6.2563 O   0  0  0  0  0  0  0  0  0  0  0  0
   17.4332   70.6727   -7.4110 O   0  0  0  0  0  0  0  0  0  0  0  0
   14.9824   69.6254   -3.4013 O   0  0  0  0  0  0  0  0  0  0  0  0
   16.1129   69.9694   -5.5010 C   0  0  2  0  0  0  0  0  0  0  0  0
   17.4905   69.9903   -6.1637 C   0  0  2  0  0  0  0  0  0  0  0  0
   16.2112   69.3925   -4.0870 C   0  0  1  0  0  0  0  0  0  0  0  0
   18.5191   70.6793   -5.2659 C   0  0  1  0  0  0  0  0  0  0  0  0
   17.3420   70.0446   -3.2966 C   0  0  1  0  0  0  0  0  0  0  0  0
   15.1539   69.4852   -7.1589 H   0  0  0  0  0  0  0  0  0  0  0  0
   16.7822   70.2409   -7.9856 H   0  0  0  0  0  0  0  0  0  0  0  0
   14.2544   69.2155   -3.8941 H   0  0  0  0  0  0  0  0  0  0  0  0
   18.9580   69.3594   -1.7408 O   0  0  0  0  0  0  0  0  0  0  0  0
   16.8237   68.6258   -1.4151 O   0  0  0  0  0  0  0  0  0  0  0  0
   17.6433   69.2636   -2.0591 C   0  0  0  0  0  0  0  0  0  0  0  0
  1  4  1  0
  1 24  1  0
  1  2  1  1
  1  3  2  0
 25 28  1  0
 25 24  1  0
 25 26  1  6
 25 27  2  0
  6 11  1  0
  6 12  1  0
 29 36  1  0
 29 37  1  0
  9  7  1  6
  7 13  1  0
 10  8  1  1
  8 14  1  0
  4  5  1  0
 36 28  1  1
 33 30  1  6
 30 38  1  0
 34 31  1  6
 31 39  1  0
 35 32  1  1
 32 40  1  0
 41 43  1  0
 15 19  2  0
 42 43  2  0
 16 22  2  0
 12 17  1  6
 17 19  1  0
 17 20  1  0
 18 19  1  0
 18 22  1  0
 18 23  1  0
  9 10  1  0
  9 11  1  0
 10 12  1  0
 11  5  1  1
 33 34  1  0
 33 35  1  0
 34 36  1  0
 35 37  1  0
 37 43  1  1
 20 21  2  0
 21 22  1  0
M  CHG  3   2  -1  26  -1  41  -1
M  END
>  <COMPND>  (91) 
    udp_gluA.pdb 

>  <AUTHOR>  (91) 
    GENERATED BY OPEN BABEL 3.1.1

>  <MASTER>  (91) 
        0    0    0    0    0    0    0    0   56    0   56    0

>  <minimizedAffinity>  (91) 
-7.01831

>  <CNNscore>  (91) 
0.4780465364

>  <CNNaffinity>  (91) 
4.0179300308

>  <CNN_VS>  (91) 
1.9207575321

>  <CNNaffinity_variance>  (91) 
0.7566103339

$$$$
92
     RDKit          3D

 43 45  0  0  0  0  0  0  0  0999 V2000
   24.0122   72.4548   -2.7774 P   0  0  2  0  0  0  0  0  0  0  0  0
   25.1249   72.4912   -3.9520 O   0  0  0  0  0  0  0  0  0  0  0  0
   23.8906   73.7204   -1.9805 O   0  0  0  0  0  0  0  0  0  0  0  0
   24.3825   71.1254   -1.9327 O   0  0  0  0  0  0  0  0  0  0  0  0
   24.8833   71.2779   -0.6172 C   0  0  0  0  0  0  0  0  0  0  0  0
   24.6884   70.4515    1.6315 O   0  0  0  0  0  0  0  0  0  0  0  0
   21.8458   69.7896    0.9439 O   0  0  0  0  0  0  0  0  0  0  0  0
   21.5930   72.1100    2.3540 O   0  0  0  0  0  0  0  0  0  0  0  0
   22.6421   70.8984    0.5254 C   0  0  1  0  0  0  0  0  0  0  0  0
   22.8033   71.8863    1.6613 C   0  0  2  0  0  0  0  0  0  0  0  0
   24.0687   70.4043    0.3281 C   0  0  1  0  0  0  0  0  0  0  0  0
   23.8536   71.2070    2.5234 C   0  0  2  0  0  0  0  0  0  0  0  0
   20.9296   70.0808    1.0765 H   0  0  0  0  0  0  0  0  0  0  0  0
   20.9576   72.5443    1.7627 H   0  0  0  0  0  0  0  0  0  0  0  0
   23.1841   72.3048    5.0380 O   0  0  0  0  0  0  0  0  0  0  0  0
   27.0505   74.8100    5.1780 O   0  0  0  0  0  0  0  0  0  0  0  0
   24.6672   72.1484    3.2395 N   0  0  0  0  0  0  0  0  0  0  0  0
   25.1099   73.5522    5.1049 N   0  0  0  0  0  0  0  0  0  0  0  0
   24.2394   72.6387    4.4960 C   0  0  0  0  0  0  0  0  0  0  0  0
   25.8739   72.5749    2.6983 C   0  0  0  0  0  0  0  0  0  0  0  0
   26.6930   73.4461    3.2906 C   0  0  0  0  0  0  0  0  0  0  0  0
   26.3197   74.0070    4.6057 C   0  0  0  0  0  0  0  0  0  0  0  0
   24.8325   73.9091    5.9795 H   0  0  0  0  0  0  0  0  0  0  0  0
   22.6680   72.0227   -3.5642 O   0  0  0  0  0  0  0  0  0  0  0  0
   21.2526   71.4630   -3.0193 P   0  0  2  0  0  0  0  0  0  0  0  0
   20.8066   72.5787   -1.9345 O   0  0  0  0  0  0  0  0  0  0  0  0
   21.3107   70.0636   -2.4788 O   0  0  0  0  0  0  0  0  0  0  0  0
   20.2314   71.6627   -4.2521 O   0  0  0  0  0  0  0  0  0  0  0  0
   18.0208   70.8317   -4.4301 O   0  0  0  0  0  0  0  0  0  0  0  0
   19.1591   71.0491   -8.3956 O   0  0  0  0  0  0  0  0  0  0  0  0
   21.0151   70.0456   -6.3750 O   0  0  0  0  0  0  0  0  0  0  0  0
   17.3561   73.0401   -7.2838 O   0  0  0  0  0  0  0  0  0  0  0  0
   19.1380   71.4395   -7.0226 C   0  0  2  0  0  0  0  0  0  0  0  0
   19.6295   70.2816   -6.1537 C   0  0  2  0  0  0  0  0  0  0  0  0
   17.6976   71.8051   -6.6571 C   0  0  1  0  0  0  0  0  0  0  0  0
   19.4054   70.5774   -4.6701 C   0  0  1  0  0  0  0  0  0  0  0  0
   17.5280   71.9604   -5.1486 C   0  0  1  0  0  0  0  0  0  0  0  0
   20.0647   70.8120   -8.6506 H   0  0  0  0  0  0  0  0  0  0  0  0
   21.1646   69.8575   -7.3145 H   0  0  0  0  0  0  0  0  0  0  0  0
   17.4600   72.9548   -8.2444 H   0  0  0  0  0  0  0  0  0  0  0  0
   15.9328   72.1571   -3.4402 O   0  0  0  0  0  0  0  0  0  0  0  0
   15.1528   71.8782   -5.5645 O   0  0  0  0  0  0  0  0  0  0  0  0
   16.0809   71.9886   -4.7776 C   0  0  0  0  0  0  0  0  0  0  0  0
  1  4  1  0
  1 24  1  0
  1  2  1  6
  1  3  2  0
 25 28  1  0
 25 24  1  0
 25 26  1  1
 25 27  2  0
  6 11  1  0
  6 12  1  0
 29 36  1  0
 29 37  1  0
  9  7  1  1
  7 13  1  0
 10  8  1  1
  8 14  1  0
  4  5  1  0
 36 28  1  6
 33 30  1  6
 30 38  1  0
 34 31  1  1
 31 39  1  0
 35 32  1  6
 32 40  1  0
 41 43  1  0
 15 19  2  0
 42 43  2  0
 16 22  2  0
 12 17  1  6
 17 19  1  0
 17 20  1  0
 18 19  1  0
 18 22  1  0
 18 23  1  0
  9 10  1  0
  9 11  1  0
 10 12  1  0
 11  5  1  6
 33 34  1  0
 33 35  1  0
 34 36  1  0
 35 37  1  0
 37 43  1  6
 20 21  2  0
 21 22  1  0
M  CHG  3   2  -1  26  -1  41  -1
M  END
>  <COMPND>  (92) 
    udp_gluA.pdb 

>  <AUTHOR>  (92) 
    GENERATED BY OPEN BABEL 3.1.1

>  <MASTER>  (92) 
        0    0    0    0    0    0    0    0   56    0   56    0

>  <minimizedAffinity>  (92) 
-7.11045

>  <CNNscore>  (92) 
0.4572784603

>  <CNNaffinity>  (92) 
4.2456521988

>  <CNN_VS>  (92) 
1.9414453506

>  <CNNaffinity_variance>  (92) 
0.0505514517

$$$$
93
     RDKit          3D

 43 45  0  0  0  0  0  0  0  0999 V2000
   22.8833   73.3427   -4.7987 P   0  0  2  0  0  0  0  0  0  0  0  0
   21.7096   74.4546   -4.7271 O   0  0  0  0  0  0  0  0  0  0  0  0
   24.2006   73.8443   -5.3134 O   0  0  0  0  0  0  0  0  0  0  0  0
   22.2178   72.1288   -5.6362 O   0  0  0  0  0  0  0  0  0  0  0  0
   20.8069   72.0117   -5.6518 C   0  0  0  0  0  0  0  0  0  0  0  0
   19.7035   69.9099   -6.0289 O   0  0  0  0  0  0  0  0  0  0  0  0
   19.5583   70.7157   -8.9136 O   0  0  0  0  0  0  0  0  0  0  0  0
   17.0407   71.2567   -8.0164 O   0  0  0  0  0  0  0  0  0  0  0  0
   19.4419   71.5242   -7.7426 C   0  0  1  0  0  0  0  0  0  0  0  0
   18.0985   71.2990   -7.0816 C   0  0  2  0  0  0  0  0  0  0  0  0
   20.4063   70.9794   -6.6978 C   0  0  1  0  0  0  0  0  0  0  0  0
   18.3116   69.9689   -6.3792 C   0  0  2  0  0  0  0  0  0  0  0  0
   18.9514   71.0445   -9.5956 H   0  0  0  0  0  0  0  0  0  0  0  0
   16.9452   72.1266   -8.4361 H   0  0  0  0  0  0  0  0  0  0  0  0
   15.6370   69.0638   -6.3179 O   0  0  0  0  0  0  0  0  0  0  0  0
   15.3876   69.5433   -1.7406 O   0  0  0  0  0  0  0  0  0  0  0  0
   17.5241   69.8474   -5.1851 N   0  0  0  0  0  0  0  0  0  0  0  0
   15.5150   69.3045   -4.0383 N   0  0  0  0  0  0  0  0  0  0  0  0
   16.1900   69.3827   -5.2636 C   0  0  0  0  0  0  0  0  0  0  0  0
   18.0739   70.1849   -3.9543 C   0  0  0  0  0  0  0  0  0  0  0  0
   17.4182   70.1049   -2.7948 C   0  0  0  0  0  0  0  0  0  0  0  0
   16.0192   69.6293   -2.7894 C   0  0  0  0  0  0  0  0  0  0  0  0
   14.5840   68.9855   -4.0679 H   0  0  0  0  0  0  0  0  0  0  0  0
   22.9263   72.7629   -3.2905 O   0  0  0  0  0  0  0  0  0  0  0  0
   23.3521   71.3099   -2.7236 P   0  0  2  0  0  0  0  0  0  0  0  0
   24.9441   71.2530   -3.0107 O   0  0  0  0  0  0  0  0  0  0  0  0
   22.5762   70.1676   -3.3127 O   0  0  0  0  0  0  0  0  0  0  0  0
   23.2320   71.4447   -1.1206 O   0  0  0  0  0  0  0  0  0  0  0  0
   23.4472   73.3841    0.2217 O   0  0  0  0  0  0  0  0  0  0  0  0
   24.7769   70.4330    2.7890 O   0  0  0  0  0  0  0  0  0  0  0  0
   25.5723   70.4191   -0.0219 O   0  0  0  0  0  0  0  0  0  0  0  0
   22.1310   71.5861    3.1367 O   0  0  0  0  0  0  0  0  0  0  0  0
   23.9925   70.9833    1.7308 C   0  0  2  0  0  0  0  0  0  0  0  0
   24.9143   71.5013    0.6265 C   0  0  2  0  0  0  0  0  0  0  0  0
   23.1571   72.1285    2.3075 C   0  0  1  0  0  0  0  0  0  0  0  0
   24.1273   72.3006   -0.4130 C   0  0  1  0  0  0  0  0  0  0  0  0
   22.5053   72.9542    1.2021 C   0  0  1  0  0  0  0  0  0  0  0  0
   25.3164   69.7033    2.4461 H   0  0  0  0  0  0  0  0  0  0  0  0
   26.0735   69.9075    0.6319 H   0  0  0  0  0  0  0  0  0  0  0  0
   22.5326   71.0581    3.8444 H   0  0  0  0  0  0  0  0  0  0  0  0
   20.8073   74.0374    2.4040 O   0  0  0  0  0  0  0  0  0  0  0  0
   22.5123   75.3309    1.6174 O   0  0  0  0  0  0  0  0  0  0  0  0
   21.9744   74.2412    1.7442 C   0  0  0  0  0  0  0  0  0  0  0  0
  1  4  1  0
  1 24  1  0
  1  2  1  1
  1  3  2  0
 25 28  1  0
 25 24  1  0
 25 26  1  1
 25 27  2  0
  6 11  1  0
  6 12  1  0
 29 36  1  0
 29 37  1  0
  9  7  1  6
  7 13  1  0
 10  8  1  6
  8 14  1  0
  4  5  1  0
 36 28  1  1
 33 30  1  1
 30 38  1  0
 34 31  1  6
 31 39  1  0
 35 32  1  1
 32 40  1  0
 41 43  1  0
 15 19  2  0
 42 43  2  0
 16 22  2  0
 12 17  1  1
 17 19  1  0
 17 20  1  0
 18 19  1  0
 18 22  1  0
 18 23  1  0
  9 10  1  0
  9 11  1  0
 10 12  1  0
 11  5  1  1
 33 34  1  0
 33 35  1  0
 34 36  1  0
 35 37  1  0
 37 43  1  1
 20 21  2  0
 21 22  1  0
M  CHG  3   2  -1  26  -1  41  -1
M  END
>  <COMPND>  (93) 
    udp_gluA.pdb 

>  <AUTHOR>  (93) 
    GENERATED BY OPEN BABEL 3.1.1

>  <MASTER>  (93) 
        0    0    0    0    0    0    0    0   56    0   56    0

>  <minimizedAffinity>  (93) 
-7.24976

>  <CNNscore>  (93) 
0.4552619755

>  <CNNaffinity>  (93) 
4.3831534386

>  <CNN_VS>  (93) 
1.9954830408

>  <CNNaffinity_variance>  (93) 
0.2675753534

$$$$
94
     RDKit          3D

 43 45  0  0  0  0  0  0  0  0999 V2000
   22.2894   73.1457   -5.5830 P   0  0  2  0  0  0  0  0  0  0  0  0
   23.7920   72.6211   -5.8761 O   0  0  0  0  0  0  0  0  0  0  0  0
   21.9198   74.4264   -6.2723 O   0  0  0  0  0  0  0  0  0  0  0  0
   22.1922   73.1636   -3.9680 O   0  0  0  0  0  0  0  0  0  0  0  0
   21.0941   73.8222   -3.3640 C   0  0  0  0  0  0  0  0  0  0  0  0
   20.9550   71.6721   -2.2985 O   0  0  0  0  0  0  0  0  0  0  0  0
   18.2072   72.4917   -1.4215 O   0  0  0  0  0  0  0  0  0  0  0  0
   19.6971   72.9028    0.8251 O   0  0  0  0  0  0  0  0  0  0  0  0
   19.3868   73.2847   -1.5561 C   0  0  1  0  0  0  0  0  0  0  0  0
   20.3488   72.9894   -0.4248 C   0  0  2  0  0  0  0  0  0  0  0  0
   20.1566   72.7796   -2.7688 C   0  0  1  0  0  0  0  0  0  0  0  0
   20.9532   71.6660   -0.8621 C   0  0  2  0  0  0  0  0  0  0  0  0
   17.6988   72.7957   -0.6529 H   0  0  0  0  0  0  0  0  0  0  0  0
   19.3297   73.7702    1.0590 H   0  0  0  0  0  0  0  0  0  0  0  0
   21.8518   69.4546    0.6474 O   0  0  0  0  0  0  0  0  0  0  0  0
   26.1417   71.1240    0.8795 O   0  0  0  0  0  0  0  0  0  0  0  0
   22.2998   71.4974   -0.3942 N   0  0  0  0  0  0  0  0  0  0  0  0
   23.9873   70.2887    0.7624 N   0  0  0  0  0  0  0  0  0  0  0  0
   22.6477   70.3496    0.3567 C   0  0  0  0  0  0  0  0  0  0  0  0
   23.2595   72.4606   -0.6809 C   0  0  0  0  0  0  0  0  0  0  0  0
   24.5326   72.3885   -0.2875 C   0  0  0  0  0  0  0  0  0  0  0  0
   24.9779   71.2217    0.5023 C   0  0  0  0  0  0  0  0  0  0  0  0
   24.2528   69.4998    1.2883 H   0  0  0  0  0  0  0  0  0  0  0  0
   21.3760   71.8751   -5.9880 O   0  0  0  0  0  0  0  0  0  0  0  0
   20.8113   71.3880   -7.4224 P   0  0  2  0  0  0  0  0  0  0  0  0
   21.3997   69.8864   -7.5610 O   0  0  0  0  0  0  0  0  0  0  0  0
   21.1628   72.2977   -8.5638 O   0  0  0  0  0  0  0  0  0  0  0  0
   19.2277   71.1850   -7.1913 O   0  0  0  0  0  0  0  0  0  0  0  0
   18.4349   69.5168   -5.7089 O   0  0  0  0  0  0  0  0  0  0  0  0
   15.0642   70.3097   -7.9622 O   0  0  0  0  0  0  0  0  0  0  0  0
   17.6842   70.1061   -9.2381 O   0  0  0  0  0  0  0  0  0  0  0  0
   15.2819   71.3364   -5.2512 O   0  0  0  0  0  0  0  0  0  0  0  0
   16.2985   70.6135   -7.3124 C   0  0  2  0  0  0  0  0  0  0  0  0
   17.4104   69.7381   -7.8912 C   0  0  2  0  0  0  0  0  0  0  0  0
   16.1266   70.3362   -5.8173 C   0  0  1  0  0  0  0  0  0  0  0  0
   18.6932   69.8682   -7.0687 C   0  0  1  0  0  0  0  0  0  0  0  0
   17.4671   70.3604   -5.0885 C   0  0  1  0  0  0  0  0  0  0  0  0
   15.1494   70.4783   -8.9138 H   0  0  0  0  0  0  0  0  0  0  0  0
   16.8745   70.0261   -9.7657 H   0  0  0  0  0  0  0  0  0  0  0  0
   14.4253   71.3317   -5.7063 H   0  0  0  0  0  0  0  0  0  0  0  0
   16.1645   69.1052   -3.5954 O   0  0  0  0  0  0  0  0  0  0  0  0
   18.1708   69.8744   -2.8324 O   0  0  0  0  0  0  0  0  0  0  0  0
   17.3379   69.7734   -3.7207 C   0  0  0  0  0  0  0  0  0  0  0  0
  1  4  1  0
  1 24  1  0
  1  2  1  1
  1  3  2  0
 25 28  1  0
 25 24  1  0
 25 26  1  6
 25 27  2  0
  6 11  1  0
  6 12  1  0
 29 36  1  0
 29 37  1  0
  9  7  1  1
  7 13  1  0
 10  8  1  1
  8 14  1  0
  4  5  1  0
 36 28  1  1
 33 30  1  6
 30 38  1  0
 34 31  1  6
 31 39  1  0
 35 32  1  1
 32 40  1  0
 41 43  1  0
 15 19  2  0
 42 43  2  0
 16 22  2  0
 12 17  1  1
 17 19  1  0
 17 20  1  0
 18 19  1  0
 18 22  1  0
 18 23  1  0
  9 10  1  0
  9 11  1  0
 10 12  1  0
 11  5  1  1
 33 34  1  0
 33 35  1  0
 34 36  1  0
 35 37  1  0
 37 43  1  1
 20 21  2  0
 21 22  1  0
M  CHG  3   2  -1  26  -1  41  -1
M  END
>  <COMPND>  (94) 
    udp_gluA.pdb 

>  <AUTHOR>  (94) 
    GENERATED BY OPEN BABEL 3.1.1

>  <MASTER>  (94) 
        0    0    0    0    0    0    0    0   56    0   56    0

>  <minimizedAffinity>  (94) 
-7.97050

>  <CNNscore>  (94) 
0.4416454136

>  <CNNaffinity>  (94) 
4.3846716881

>  <CNN_VS>  (94) 
1.9364701509

>  <CNNaffinity_variance>  (94) 
0.1807962656

$$$$
95
     RDKit          3D

 43 45  0  0  0  0  0  0  0  0999 V2000
   19.5195   71.4841   -2.1851 P   0  0  2  0  0  0  0  0  0  0  0  0
   19.7237   72.8074   -1.2762 O   0  0  0  0  0  0  0  0  0  0  0  0
   18.0904   71.1227   -2.4658 O   0  0  0  0  0  0  0  0  0  0  0  0
   20.3944   70.3535   -1.4273 O   0  0  0  0  0  0  0  0  0  0  0  0
   21.0305   70.6946   -0.2093 C   0  0  0  0  0  0  0  0  0  0  0  0
   23.0425   70.8250   -1.5180 O   0  0  0  0  0  0  0  0  0  0  0  0
   24.5017   70.0705    0.9905 O   0  0  0  0  0  0  0  0  0  0  0  0
   24.8912   72.7664    0.8626 O   0  0  0  0  0  0  0  0  0  0  0  0
   23.3442   70.8908    0.8305 C   0  0  1  0  0  0  0  0  0  0  0  0
   23.7311   72.2369    0.2556 C   0  0  2  0  0  0  0  0  0  0  0  0
   22.4990   70.2976   -0.2885 C   0  0  1  0  0  0  0  0  0  0  0  0
   23.9387   71.9051   -1.2123 C   0  0  2  0  0  0  0  0  0  0  0  0
   25.0574   70.4297    1.7003 H   0  0  0  0  0  0  0  0  0  0  0  0
   24.7077   72.9613    1.7955 H   0  0  0  0  0  0  0  0  0  0  0  0
   25.0737   72.2890   -3.7698 O   0  0  0  0  0  0  0  0  0  0  0  0
   22.7279   76.2021   -4.4244 O   0  0  0  0  0  0  0  0  0  0  0  0
   23.6422   73.0156   -2.0724 N   0  0  0  0  0  0  0  0  0  0  0  0
   23.9051   74.2381   -4.0930 N   0  0  0  0  0  0  0  0  0  0  0  0
   24.2670   73.1146   -3.3381 C   0  0  0  0  0  0  0  0  0  0  0  0
   22.7410   73.9901   -1.6611 C   0  0  0  0  0  0  0  0  0  0  0  0
   22.4060   75.0553   -2.3918 C   0  0  0  0  0  0  0  0  0  0  0  0
   23.0145   75.2341   -3.7264 C   0  0  0  0  0  0  0  0  0  0  0  0
   24.3286   74.3298   -4.9770 H   0  0  0  0  0  0  0  0  0  0  0  0
   20.4031   71.8068   -3.4996 O   0  0  0  0  0  0  0  0  0  0  0  0
   20.1082   72.7652   -4.7678 P   0  0  2  0  0  0  0  0  0  0  0  0
   21.5016   72.7287   -5.5908 O   0  0  0  0  0  0  0  0  0  0  0  0
   19.6420   74.1446   -4.4019 O   0  0  0  0  0  0  0  0  0  0  0  0
   19.0740   71.9291   -5.6809 O   0  0  0  0  0  0  0  0  0  0  0  0
   18.4344   69.6637   -5.4199 O   0  0  0  0  0  0  0  0  0  0  0  0
   17.9559   70.2091   -9.4870 O   0  0  0  0  0  0  0  0  0  0  0  0
   20.2833   71.3127   -8.1086 O   0  0  0  0  0  0  0  0  0  0  0  0
   15.6318   70.1246   -7.7428 O   0  0  0  0  0  0  0  0  0  0  0  0
   17.9656   70.5952   -8.1127 C   0  0  2  0  0  0  0  0  0  0  0  0
   19.3656   70.3898   -7.5334 C   0  0  2  0  0  0  0  0  0  0  0  0
   16.9493   69.7250   -7.3698 C   0  0  1  0  0  0  0  0  0  0  0  0
   19.3615   70.5724   -6.0150 C   0  0  1  0  0  0  0  0  0  0  0  0
   17.0929   69.8687   -5.8575 C   0  0  1  0  0  0  0  0  0  0  0  0
   18.5945   70.7488   -9.9792 H   0  0  0  0  0  0  0  0  0  0  0  0
   20.2907   71.2026   -9.0720 H   0  0  0  0  0  0  0  0  0  0  0  0
   15.5274   70.0380   -8.7032 H   0  0  0  0  0  0  0  0  0  0  0  0
   16.5392   68.8688   -3.8092 O   0  0  0  0  0  0  0  0  0  0  0  0
   15.6380   67.9511   -5.6920 O   0  0  0  0  0  0  0  0  0  0  0  0
   16.3402   68.7904   -5.1483 C   0  0  0  0  0  0  0  0  0  0  0  0
  1  4  1  0
  1 24  1  0
  1  2  1  1
  1  3  2  0
 25 28  1  0
 25 24  1  0
 25 26  1  6
 25 27  2  0
  6 11  1  0
  6 12  1  0
 29 36  1  0
 29 37  1  0
  9  7  1  6
  7 13  1  0
 10  8  1  1
  8 14  1  0
  4  5  1  0
 36 28  1  6
 33 30  1  6
 30 38  1  0
 34 31  1  6
 31 39  1  0
 35 32  1  6
 32 40  1  0
 41 43  1  0
 15 19  2  0
 42 43  2  0
 16 22  2  0
 12 17  1  6
 17 19  1  0
 17 20  1  0
 18 19  1  0
 18 22  1  0
 18 23  1  0
  9 10  1  0
  9 11  1  0
 10 12  1  0
 11  5  1  1
 33 34  1  0
 33 35  1  0
 34 36  1  0
 35 37  1  0
 37 43  1  1
 20 21  2  0
 21 22  1  0
M  CHG  3   2  -1  26  -1  41  -1
M  END
>  <COMPND>  (95) 
    udp_gluA.pdb 

>  <AUTHOR>  (95) 
    GENERATED BY OPEN BABEL 3.1.1

>  <MASTER>  (95) 
        0    0    0    0    0    0    0    0   56    0   56    0

>  <minimizedAffinity>  (95) 
-7.31537

>  <CNNscore>  (95) 
0.4315487742

>  <CNNaffinity>  (95) 
4.1074476242

>  <CNN_VS>  (95) 
1.7725639343

>  <CNNaffinity_variance>  (95) 
0.5559708476

$$$$
96
     RDKit          3D

 43 45  0  0  0  0  0  0  0  0999 V2000
   19.4757   72.8974   -0.7807 P   0  0  2  0  0  0  0  0  0  0  0  0
   19.8284   74.3849   -1.3117 O   0  0  0  0  0  0  0  0  0  0  0  0
   18.1482   72.7683   -0.0931 O   0  0  0  0  0  0  0  0  0  0  0  0
   20.7672   72.4835    0.1017 O   0  0  0  0  0  0  0  0  0  0  0  0
   21.8403   73.4016    0.2015 C   0  0  0  0  0  0  0  0  0  0  0  0
   24.2364   73.4234    0.0114 O   0  0  0  0  0  0  0  0  0  0  0  0
   23.9513   70.8678   -1.5310 O   0  0  0  0  0  0  0  0  0  0  0  0
   24.6990   69.9917    0.9407 O   0  0  0  0  0  0  0  0  0  0  0  0
   23.1956   71.3387   -0.4149 C   0  0  1  0  0  0  0  0  0  0  0  0
   24.0098   71.2215    0.8562 C   0  0  2  0  0  0  0  0  0  0  0  0
   23.0400   72.8467   -0.5556 C   0  0  1  0  0  0  0  0  0  0  0  0
   24.9478   72.4108    0.7408 C   0  0  2  0  0  0  0  0  0  0  0  0
   24.0639   69.9063   -1.4632 H   0  0  0  0  0  0  0  0  0  0  0  0
   24.0583   69.2663    1.0128 H   0  0  0  0  0  0  0  0  0  0  0  0
   27.1402   71.4844    2.2612 O   0  0  0  0  0  0  0  0  0  0  0  0
   26.3051   74.5032    5.6425 O   0  0  0  0  0  0  0  0  0  0  0  0
   25.3259   72.9369    2.0219 N   0  0  0  0  0  0  0  0  0  0  0  0
   26.7215   72.9882    3.9443 N   0  0  0  0  0  0  0  0  0  0  0  0
   26.4442   72.4006    2.7030 C   0  0  0  0  0  0  0  0  0  0  0  0
   24.5942   73.9728    2.5897 C   0  0  0  0  0  0  0  0  0  0  0  0
   24.8708   74.5227    3.7737 C   0  0  0  0  0  0  0  0  0  0  0  0
   26.0227   74.0195    4.5505 C   0  0  0  0  0  0  0  0  0  0  0  0
   27.4943   72.6301    4.4383 H   0  0  0  0  0  0  0  0  0  0  0  0
   19.6371   71.9902   -2.1088 O   0  0  0  0  0  0  0  0  0  0  0  0
   20.0643   70.4417   -2.2910 P   0  0  2  0  0  0  0  0  0  0  0  0
   20.0523   69.8739   -0.7751 O   0  0  0  0  0  0  0  0  0  0  0  0
   21.3640   70.2426   -3.0156 O   0  0  0  0  0  0  0  0  0  0  0  0
   18.7911   69.7462   -2.9964 O   0  0  0  0  0  0  0  0  0  0  0  0
   18.3007   71.1182   -4.8635 O   0  0  0  0  0  0  0  0  0  0  0  0
   15.5866   68.0410   -5.3456 O   0  0  0  0  0  0  0  0  0  0  0  0
   16.0853   69.1748   -2.6998 O   0  0  0  0  0  0  0  0  0  0  0  0
   17.9608   68.1681   -7.0184 O   0  0  0  0  0  0  0  0  0  0  0  0
   16.8202   68.6405   -4.9494 C   0  0  2  0  0  0  0  0  0  0  0  0
   16.5483   69.7390   -3.9213 C   0  0  2  0  0  0  0  0  0  0  0  0
   17.4812   69.2309   -6.1969 C   0  0  1  0  0  0  0  0  0  0  0  0
   17.8119   70.5551   -3.6456 C   0  0  1  0  0  0  0  0  0  0  0  0
   18.6564   70.1328   -5.8308 C   0  0  1  0  0  0  0  0  0  0  0  0
   15.1484   67.6589   -4.5689 H   0  0  0  0  0  0  0  0  0  0  0  0
   15.2838   68.6553   -2.8674 H   0  0  0  0  0  0  0  0  0  0  0  0
   17.2225   67.5865   -7.2584 H   0  0  0  0  0  0  0  0  0  0  0  0
   19.1482   72.2662   -6.6723 O   0  0  0  0  0  0  0  0  0  0  0  0
   19.3378   70.5101   -8.1143 O   0  0  0  0  0  0  0  0  0  0  0  0
   19.0814   70.9532   -7.0049 C   0  0  0  0  0  0  0  0  0  0  0  0
  1  4  1  0
  1 24  1  0
  1  2  1  6
  1  3  2  0
 25 28  1  0
 25 24  1  0
 25 26  1  1
 25 27  2  0
  6 11  1  0
  6 12  1  0
 29 36  1  0
 29 37  1  0
  9  7  1  6
  7 13  1  0
 10  8  1  6
  8 14  1  0
  4  5  1  0
 36 28  1  6
 33 30  1  6
 30 38  1  0
 34 31  1  1
 31 39  1  0
 35 32  1  6
 32 40  1  0
 41 43  1  0
 15 19  2  0
 42 43  2  0
 16 22  2  0
 12 17  1  1
 17 19  1  0
 17 20  1  0
 18 19  1  0
 18 22  1  0
 18 23  1  0
  9 10  1  0
  9 11  1  0
 10 12  1  0
 11  5  1  1
 33 34  1  0
 33 35  1  0
 34 36  1  0
 35 37  1  0
 37 43  1  6
 20 21  2  0
 21 22  1  0
M  CHG  3   2  -1  26  -1  41  -1
M  END
>  <COMPND>  (96) 
    udp_gluA.pdb 

>  <AUTHOR>  (96) 
    GENERATED BY OPEN BABEL 3.1.1

>  <MASTER>  (96) 
        0    0    0    0    0    0    0    0   56    0   56    0

>  <minimizedAffinity>  (96) 
-6.99171

>  <CNNscore>  (96) 
0.4253519773

>  <CNNaffinity>  (96) 
4.1681184769

>  <CNN_VS>  (96) 
1.7729173899

>  <CNNaffinity_variance>  (96) 
0.2149230987

$$$$
97
     RDKit          3D

 43 45  0  0  0  0  0  0  0  0999 V2000
   22.6901   72.7289   -3.6751 P   0  0  2  0  0  0  0  0  0  0  0  0
   23.9743   72.4525   -4.6203 O   0  0  0  0  0  0  0  0  0  0  0  0
   22.6066   74.1164   -3.1095 O   0  0  0  0  0  0  0  0  0  0  0  0
   22.7411   71.5298   -2.5900 O   0  0  0  0  0  0  0  0  0  0  0  0
   23.6104   71.6588   -1.4800 C   0  0  0  0  0  0  0  0  0  0  0  0
   24.2481   70.6543    0.6085 O   0  0  0  0  0  0  0  0  0  0  0  0
   21.5178   69.4148    0.6326 O   0  0  0  0  0  0  0  0  0  0  0  0
   21.2350   71.5126    2.3517 O   0  0  0  0  0  0  0  0  0  0  0  0
   21.9218   70.7017    0.1647 C   0  0  1  0  0  0  0  0  0  0  0  0
   22.2094   71.6184    1.3349 C   0  0  2  0  0  0  0  0  0  0  0  0
   23.2967   70.5592   -0.4737 C   0  0  1  0  0  0  0  0  0  0  0  0
   23.5782   71.1363    1.7842 C   0  0  2  0  0  0  0  0  0  0  0  0
   20.6417   69.4805    1.0447 H   0  0  0  0  0  0  0  0  0  0  0  0
   20.3819   71.8318    2.0165 H   0  0  0  0  0  0  0  0  0  0  0  0
   23.4478   71.8944    4.5017 O   0  0  0  0  0  0  0  0  0  0  0  0
   26.6349   75.1743    3.9287 O   0  0  0  0  0  0  0  0  0  0  0  0
   24.3628   72.1851    2.3717 N   0  0  0  0  0  0  0  0  0  0  0  0
   25.0346   73.5279    4.2135 N   0  0  0  0  0  0  0  0  0  0  0  0
   24.2213   72.4867    3.7469 C   0  0  0  0  0  0  0  0  0  0  0  0
   25.2609   72.9008    1.5894 C   0  0  0  0  0  0  0  0  0  0  0  0
   26.0294   73.8906    2.0484 C   0  0  0  0  0  0  0  0  0  0  0  0
   25.9420   74.2691    3.4740 C   0  0  0  0  0  0  0  0  0  0  0  0
   24.9522   73.7574    5.1673 H   0  0  0  0  0  0  0  0  0  0  0  0
   21.4471   72.3112   -4.6202 O   0  0  0  0  0  0  0  0  0  0  0  0
   20.2913   73.2060   -5.3110 P   0  0  2  0  0  0  0  0  0  0  0  0
   21.0226   73.8041   -6.6254 O   0  0  0  0  0  0  0  0  0  0  0  0
   19.6955   74.2464   -4.4074 O   0  0  0  0  0  0  0  0  0  0  0  0
   19.2326   72.1335   -5.8866 O   0  0  0  0  0  0  0  0  0  0  0  0
   18.9090   69.8176   -5.5110 O   0  0  0  0  0  0  0  0  0  0  0  0
   18.0612   70.1422   -9.5414 O   0  0  0  0  0  0  0  0  0  0  0  0
   20.3252   71.5805   -8.3839 O   0  0  0  0  0  0  0  0  0  0  0  0
   15.9043   69.8345   -7.6167 O   0  0  0  0  0  0  0  0  0  0  0  0
   18.1245   70.5789   -8.1837 C   0  0  2  0  0  0  0  0  0  0  0  0
   19.5787   70.5728   -7.7115 C   0  0  2  0  0  0  0  0  0  0  0  0
   17.2863   69.6176   -7.3381 C   0  0  1  0  0  0  0  0  0  0  0  0
   19.6652   70.8117   -6.2035 C   0  0  1  0  0  0  0  0  0  0  0  0
   17.5233   69.8361   -5.8466 C   0  0  1  0  0  0  0  0  0  0  0  0
   18.5868   70.7382  -10.0978 H   0  0  0  0  0  0  0  0  0  0  0  0
   20.2744   71.4352   -9.3413 H   0  0  0  0  0  0  0  0  0  0  0  0
   15.7401   69.6987   -8.5630 H   0  0  0  0  0  0  0  0  0  0  0  0
   17.5076   68.6820   -3.8047 O   0  0  0  0  0  0  0  0  0  0  0  0
   16.1446   67.8953   -5.4546 O   0  0  0  0  0  0  0  0  0  0  0  0
   16.9699   68.7001   -5.0495 C   0  0  0  0  0  0  0  0  0  0  0  0
  1  4  1  0
  1 24  1  0
  1  2  1  6
  1  3  2  0
 25 28  1  0
 25 24  1  0
 25 26  1  6
 25 27  2  0
  6 11  1  0
  6 12  1  0
 29 36  1  0
 29 37  1  0
  9  7  1  1
  7 13  1  0
 10  8  1  1
  8 14  1  0
  4  5  1  0
 36 28  1  6
 33 30  1  6
 30 38  1  0
 34 31  1  6
 31 39  1  0
 35 32  1  1
 32 40  1  0
 41 43  1  0
 15 19  2  0
 42 43  2  0
 16 22  2  0
 12 17  1  6
 17 19  1  0
 17 20  1  0
 18 19  1  0
 18 22  1  0
 18 23  1  0
  9 10  1  0
  9 11  1  0
 10 12  1  0
 11  5  1  6
 33 34  1  0
 33 35  1  0
 34 36  1  0
 35 37  1  0
 37 43  1  1
 20 21  2  0
 21 22  1  0
M  CHG  3   2  -1  26  -1  41  -1
M  END
>  <COMPND>  (97) 
    udp_gluA.pdb 

>  <AUTHOR>  (97) 
    GENERATED BY OPEN BABEL 3.1.1

>  <MASTER>  (97) 
        0    0    0    0    0    0    0    0   56    0   56    0

>  <minimizedAffinity>  (97) 
-7.96480

>  <CNNscore>  (97) 
0.4113483131

>  <CNNaffinity>  (97) 
4.1723122597

>  <CNN_VS>  (97) 
1.7162736654

>  <CNNaffinity_variance>  (97) 
0.1853499711

$$$$
98
     RDKit          3D

 43 45  0  0  0  0  0  0  0  0999 V2000
   21.9023   71.9278   -4.1552 P   0  0  2  0  0  0  0  0  0  0  0  0
   21.7846   70.3854   -3.6799 O   0  0  0  0  0  0  0  0  0  0  0  0
   23.2056   72.2935   -4.8028 O   0  0  0  0  0  0  0  0  0  0  0  0
   21.5140   72.7730   -2.8312 O   0  0  0  0  0  0  0  0  0  0  0  0
   21.6951   72.1666   -1.5647 C   0  0  0  0  0  0  0  0  0  0  0  0
   23.2874   73.1384   -0.0489 O   0  0  0  0  0  0  0  0  0  0  0  0
   25.1618   70.9655   -0.9187 O   0  0  0  0  0  0  0  0  0  0  0  0
   24.2557   70.0448    1.4828 O   0  0  0  0  0  0  0  0  0  0  0  0
   23.7475   70.9167   -0.7294 C   0  0  1  0  0  0  0  0  0  0  0  0
   23.4163   70.9109    0.7479 C   0  0  2  0  0  0  0  0  0  0  0  0
   23.1668   72.2499   -1.1808 C   0  0  1  0  0  0  0  0  0  0  0  0
   23.6121   72.3705    1.1208 C   0  0  2  0  0  0  0  0  0  0  0  0
   25.5553   70.1244   -0.6372 H   0  0  0  0  0  0  0  0  0  0  0  0
   24.0930   69.1279    1.2092 H   0  0  0  0  0  0  0  0  0  0  0  0
   24.2642   72.1116    3.8566 O   0  0  0  0  0  0  0  0  0  0  0  0
   20.2598   73.9743    5.1751 O   0  0  0  0  0  0  0  0  0  0  0  0
   22.7583   72.7797    2.1999 N   0  0  0  0  0  0  0  0  0  0  0  0
   22.2687   73.0387    4.5106 N   0  0  0  0  0  0  0  0  0  0  0  0
   23.1806   72.6054    3.5391 C   0  0  0  0  0  0  0  0  0  0  0  0
   21.5198   73.3477    1.9273 C   0  0  0  0  0  0  0  0  0  0  0  0
   20.6615   73.7560    2.8640 C   0  0  0  0  0  0  0  0  0  0  0  0
   21.0256   73.6087    4.2885 C   0  0  0  0  0  0  0  0  0  0  0  0
   22.5396   72.9257    5.4504 H   0  0  0  0  0  0  0  0  0  0  0  0
   20.6045   72.1163   -5.1002 O   0  0  0  0  0  0  0  0  0  0  0  0
   20.4251   71.9643   -6.6997 P   0  0  2  0  0  0  0  0  0  0  0  0
   21.3083   70.6532   -7.0480 O   0  0  0  0  0  0  0  0  0  0  0  0
   20.8026   73.1895   -7.4809 O   0  0  0  0  0  0  0  0  0  0  0  0
   18.8960   71.4894   -6.8968 O   0  0  0  0  0  0  0  0  0  0  0  0
   18.2857   69.6102   -5.5908 O   0  0  0  0  0  0  0  0  0  0  0  0
   15.0065   70.0108   -8.0716 O   0  0  0  0  0  0  0  0  0  0  0  0
   17.7111   70.3284   -9.1293 O   0  0  0  0  0  0  0  0  0  0  0  0
   14.8476   70.8568   -5.2950 O   0  0  0  0  0  0  0  0  0  0  0  0
   16.1210   70.4617   -7.3018 C   0  0  2  0  0  0  0  0  0  0  0  0
   17.4035   69.8228   -7.8353 C   0  0  2  0  0  0  0  0  0  0  0  0
   15.8874   70.0510   -5.8462 C   0  0  1  0  0  0  0  0  0  0  0  0
   18.5817   70.0980   -6.9000 C   0  0  1  0  0  0  0  0  0  0  0  0
   17.1471   70.2381   -5.0056 C   0  0  1  0  0  0  0  0  0  0  0  0
   15.1328   70.2605   -9.0006 H   0  0  0  0  0  0  0  0  0  0  0  0
   16.9676   70.1575   -9.7279 H   0  0  0  0  0  0  0  0  0  0  0  0
   14.0401   70.7470   -5.8210 H   0  0  0  0  0  0  0  0  0  0  0  0
   16.0592   70.1245   -2.9307 O   0  0  0  0  0  0  0  0  0  0  0  0
   17.6761   68.5707   -3.3438 O   0  0  0  0  0  0  0  0  0  0  0  0
   17.0168   69.5388   -3.6917 C   0  0  0  0  0  0  0  0  0  0  0  0
  1  4  1  0
  1 24  1  0
  1  2  1  1
  1  3  2  0
 25 28  1  0
 25 24  1  0
 25 26  1  6
 25 27  2  0
  6 11  1  0
  6 12  1  0
 29 36  1  0
 29 37  1  0
  9  7  1  1
  7 13  1  0
 10  8  1  1
  8 14  1  0
  4  5  1  0
 36 28  1  1
 33 30  1  6
 30 38  1  0
 34 31  1  6
 31 39  1  0
 35 32  1  1
 32 40  1  0
 41 43  1  0
 15 19  2  0
 42 43  2  0
 16 22  2  0
 12 17  1  1
 17 19  1  0
 17 20  1  0
 18 19  1  0
 18 22  1  0
 18 23  1  0
  9 10  1  0
  9 11  1  0
 10 12  1  0
 11  5  1  1
 33 34  1  0
 33 35  1  0
 34 36  1  0
 35 37  1  0
 37 43  1  1
 20 21  2  0
 21 22  1  0
M  CHG  3   2  -1  26  -1  41  -1
M  END
>  <COMPND>  (98) 
    udp_gluA.pdb 

>  <AUTHOR>  (98) 
    GENERATED BY OPEN BABEL 3.1.1

>  <MASTER>  (98) 
        0    0    0    0    0    0    0    0   56    0   56    0

>  <minimizedAffinity>  (98) 
-7.53046

>  <CNNscore>  (98) 
0.3917036653

>  <CNNaffinity>  (98) 
4.3406057358

>  <CNN_VS>  (98) 
1.7002311945

>  <CNNaffinity_variance>  (98) 
0.0846422240

$$$$
99
     RDKit          3D

 43 45  0  0  0  0  0  0  0  0999 V2000
   17.8059   69.9922   -2.0027 P   0  0  2  0  0  0  0  0  0  0  0  0
   17.0687   68.6181   -1.5700 O   0  0  0  0  0  0  0  0  0  0  0  0
   17.1114   71.2485   -1.5655 O   0  0  0  0  0  0  0  0  0  0  0  0
   18.0259   69.8296   -3.5974 O   0  0  0  0  0  0  0  0  0  0  0  0
   17.1611   68.9683   -4.3149 C   0  0  0  0  0  0  0  0  0  0  0  0
   16.9184   71.0705   -5.4550 O   0  0  0  0  0  0  0  0  0  0  0  0
   14.8275   69.7133   -7.1216 O   0  0  0  0  0  0  0  0  0  0  0  0
   17.0041   69.6935   -8.7641 O   0  0  0  0  0  0  0  0  0  0  0  0
   16.0425   69.1847   -6.5896 C   0  0  1  0  0  0  0  0  0  0  0  0
   17.2287   69.7103   -7.3699 C   0  0  2  0  0  0  0  0  0  0  0  0
   16.2636   69.8056   -5.2171 C   0  0  1  0  0  0  0  0  0  0  0  0
   17.3709   71.1183   -6.8174 C   0  0  2  0  0  0  0  0  0  0  0  0
   14.6649   69.3311   -7.9986 H   0  0  0  0  0  0  0  0  0  0  0  0
   16.9209   68.7752   -9.0671 H   0  0  0  0  0  0  0  0  0  0  0  0
   18.1368   73.8245   -6.5605 O   0  0  0  0  0  0  0  0  0  0  0  0
   22.6116   72.7827   -6.9276 O   0  0  0  0  0  0  0  0  0  0  0  0
   18.7292   71.5822   -6.8423 N   0  0  0  0  0  0  0  0  0  0  0  0
   20.3647   73.3032   -6.7446 N   0  0  0  0  0  0  0  0  0  0  0  0
   19.0061   72.9630   -6.7051 C   0  0  0  0  0  0  0  0  0  0  0  0
   19.7694   70.6743   -6.9995 C   0  0  0  0  0  0  0  0  0  0  0  0
   21.0595   71.0137   -7.0352 C   0  0  0  0  0  0  0  0  0  0  0  0
   21.4345   72.4365   -6.8996 C   0  0  0  0  0  0  0  0  0  0  0  0
   20.5822   74.2590   -6.6531 H   0  0  0  0  0  0  0  0  0  0  0  0
   19.2978   69.8060   -1.4091 O   0  0  0  0  0  0  0  0  0  0  0  0
   20.2872   70.8540   -0.6767 P   0  0  2  0  0  0  0  0  0  0  0  0
   21.2572   69.8977    0.1978 O   0  0  0  0  0  0  0  0  0  0  0  0
   19.5817   71.9134    0.1197 O   0  0  0  0  0  0  0  0  0  0  0  0
   21.2300   71.4203   -1.8569 O   0  0  0  0  0  0  0  0  0  0  0  0
   23.0509   72.4330   -0.7310 O   0  0  0  0  0  0  0  0  0  0  0  0
   24.2030   72.7884   -4.6825 O   0  0  0  0  0  0  0  0  0  0  0  0
   21.4373   73.3021   -3.8945 O   0  0  0  0  0  0  0  0  0  0  0  0
   25.4363   70.7824   -2.9778 O   0  0  0  0  0  0  0  0  0  0  0  0
   23.5621   72.1794   -3.5617 C   0  0  2  0  0  0  0  0  0  0  0  0
   22.5195   73.1377   -2.9854 C   0  0  2  0  0  0  0  0  0  0  0  0
   24.6345   71.8677   -2.5154 C   0  0  1  0  0  0  0  0  0  0  0  0
   21.9765   72.6186   -1.6533 C   0  0  1  0  0  0  0  0  0  0  0  0
   24.0115   71.4787   -1.1779 C   0  0  1  0  0  0  0  0  0  0  0  0
   23.5409   72.9956   -5.3607 H   0  0  0  0  0  0  0  0  0  0  0  0
   21.7746   73.6310   -4.7420 H   0  0  0  0  0  0  0  0  0  0  0  0
   25.8385   71.0171   -3.8287 H   0  0  0  0  0  0  0  0  0  0  0  0
   25.7914   70.3733   -0.1236 O   0  0  0  0  0  0  0  0  0  0  0  0
   25.1800   72.4012    0.7207 O   0  0  0  0  0  0  0  0  0  0  0  0
   25.0354   71.4986   -0.0900 C   0  0  0  0  0  0  0  0  0  0  0  0
  1  4  1  0
  1 24  1  0
  1  2  1  1
  1  3  2  0
 25 28  1  0
 25 24  1  0
 25 26  1  1
 25 27  2  0
  6 11  1  0
  6 12  1  0
 29 36  1  0
 29 37  1  0
  9  7  1  6
  7 13  1  0
 10  8  1  6
  8 14  1  0
  4  5  1  0
 36 28  1  6
 33 30  1  6
 30 38  1  0
 34 31  1  6
 31 39  1  0
 35 32  1  6
 32 40  1  0
 41 43  1  0
 15 19  2  0
 42 43  2  0
 16 22  2  0
 12 17  1  1
 17 19  1  0
 17 20  1  0
 18 19  1  0
 18 22  1  0
 18 23  1  0
  9 10  1  0
  9 11  1  0
 10 12  1  0
 11  5  1  1
 33 34  1  0
 33 35  1  0
 34 36  1  0
 35 37  1  0
 37 43  1  1
 20 21  2  0
 21 22  1  0
M  CHG  3   2  -1  26  -1  41  -1
M  END
>  <COMPND>  (99) 
    udp_gluA.pdb 

>  <AUTHOR>  (99) 
    GENERATED BY OPEN BABEL 3.1.1

>  <MASTER>  (99) 
        0    0    0    0    0    0    0    0   56    0   56    0

>  <minimizedAffinity>  (99) 
-8.36030

>  <CNNscore>  (99) 
0.3907485306

>  <CNNaffinity>  (99) 
4.0645246506

>  <CNN_VS>  (99) 
1.5882070065

>  <CNNaffinity_variance>  (99) 
1.0484905243

$$$$
100
     RDKit          3D

 43 45  0  0  0  0  0  0  0  0999 V2000
   17.3311   70.0920   -2.2632 P   0  0  2  0  0  0  0  0  0  0  0  0
   17.1354   68.6200   -1.6198 O   0  0  0  0  0  0  0  0  0  0  0  0
   16.1861   71.0368   -2.0436 O   0  0  0  0  0  0  0  0  0  0  0  0
   17.7095   69.7937   -3.8078 O   0  0  0  0  0  0  0  0  0  0  0  0
   16.8105   69.0275   -4.5883 C   0  0  0  0  0  0  0  0  0  0  0  0
   16.8984   71.1555   -5.7026 O   0  0  0  0  0  0  0  0  0  0  0  0
   14.9866   69.9829   -7.6930 O   0  0  0  0  0  0  0  0  0  0  0  0
   17.3777   69.8154   -8.9933 O   0  0  0  0  0  0  0  0  0  0  0  0
   16.0653   69.3563   -6.9985 C   0  0  1  0  0  0  0  0  0  0  0  0
   17.3910   69.7984   -7.5812 C   0  0  2  0  0  0  0  0  0  0  0  0
   16.1233   69.9419   -5.5943 C   0  0  1  0  0  0  0  0  0  0  0  0
   17.5526   71.1846   -6.9811 C   0  0  2  0  0  0  0  0  0  0  0  0
   14.9296   69.6248   -8.5931 H   0  0  0  0  0  0  0  0  0  0  0  0
   17.2729   68.9100   -9.3266 H   0  0  0  0  0  0  0  0  0  0  0  0
   18.4738   73.8251   -6.5867 O   0  0  0  0  0  0  0  0  0  0  0  0
   22.8591   72.4423   -6.2694 O   0  0  0  0  0  0  0  0  0  0  0  0
   18.9299   71.5430   -6.7927 N   0  0  0  0  0  0  0  0  0  0  0  0
   20.6572   73.1340   -6.4301 N   0  0  0  0  0  0  0  0  0  0  0  0
   19.2868   72.8990   -6.6029 C   0  0  0  0  0  0  0  0  0  0  0  0
   19.9096   70.5576   -6.7955 C   0  0  0  0  0  0  0  0  0  0  0  0
   21.2119   70.7970   -6.6294 C   0  0  0  0  0  0  0  0  0  0  0  0
   21.6688   72.1874   -6.4258 C   0  0  0  0  0  0  0  0  0  0  0  0
   20.9302   74.0707   -6.2982 H   0  0  0  0  0  0  0  0  0  0  0  0
   18.7371   70.5798   -1.6323 O   0  0  0  0  0  0  0  0  0  0  0  0
   19.6103   71.9154   -1.8916 P   0  0  2  0  0  0  0  0  0  0  0  0
   18.7882   73.0563   -1.0899 O   0  0  0  0  0  0  0  0  0  0  0  0
   19.8449   72.2259   -3.3416 O   0  0  0  0  0  0  0  0  0  0  0  0
   20.9551   71.6994   -1.0271 O   0  0  0  0  0  0  0  0  0  0  0  0
   22.8979   71.3865   -2.3450 O   0  0  0  0  0  0  0  0  0  0  0  0
   24.3061   70.5337    1.4441 O   0  0  0  0  0  0  0  0  0  0  0  0
   21.6938   69.5526    0.5796 O   0  0  0  0  0  0  0  0  0  0  0  0
   24.9568   73.0705    0.1823 O   0  0  0  0  0  0  0  0  0  0  0  0
   23.4851   71.1855    0.4751 C   0  0  2  0  0  0  0  0  0  0  0  0
   22.6606   70.1435   -0.2811 C   0  0  2  0  0  0  0  0  0  0  0  0
   24.4015   71.9415   -0.4896 C   0  0  1  0  0  0  0  0  0  0  0  0
   21.9442   70.7746   -1.4758 C   0  0  1  0  0  0  0  0  0  0  0  0
   23.6368   72.4312   -1.7159 C   0  0  1  0  0  0  0  0  0  0  0  0
   23.7454   70.0466    2.0683 H   0  0  0  0  0  0  0  0  0  0  0  0
   22.1414   69.1504    1.3401 H   0  0  0  0  0  0  0  0  0  0  0  0
   25.4461   72.7725    0.9650 H   0  0  0  0  0  0  0  0  0  0  0  0
   24.9218   74.1704   -2.6245 O   0  0  0  0  0  0  0  0  0  0  0  0
   24.9924   72.1573   -3.6929 O   0  0  0  0  0  0  0  0  0  0  0  0
   24.5796   72.8686   -2.7892 C   0  0  0  0  0  0  0  0  0  0  0  0
  1  4  1  0
  1 24  1  0
  1  2  1  1
  1  3  2  0
 25 28  1  0
 25 24  1  0
 25 26  1  1
 25 27  2  0
  6 11  1  0
  6 12  1  0
 29 36  1  0
 29 37  1  0
  9  7  1  6
  7 13  1  0
 10  8  1  6
  8 14  1  0
  4  5  1  0
 36 28  1  1
 33 30  1  1
 30 38  1  0
 34 31  1  1
 31 39  1  0
 35 32  1  1
 32 40  1  0
 41 43  1  0
 15 19  2  0
 42 43  2  0
 16 22  2  0
 12 17  1  1
 17 19  1  0
 17 20  1  0
 18 19  1  0
 18 22  1  0
 18 23  1  0
  9 10  1  0
  9 11  1  0
 10 12  1  0
 11  5  1  1
 33 34  1  0
 33 35  1  0
 34 36  1  0
 35 37  1  0
 37 43  1  6
 20 21  2  0
 21 22  1  0
M  CHG  3   2  -1  26  -1  41  -1
M  END
>  <COMPND>  (100) 
    udp_gluA.pdb 

>  <AUTHOR>  (100) 
    GENERATED BY OPEN BABEL 3.1.1

>  <MASTER>  (100) 
        0    0    0    0    0    0    0    0   56    0   56    0

>  <minimizedAffinity>  (100) 
-7.98829

>  <CNNscore>  (100) 
0.3821596205

>  <CNNaffinity>  (100) 
4.0849967003

>  <CNN_VS>  (100) 
1.5611207485

>  <CNNaffinity_variance>  (100) 
0.9897915125

$$$$
101
     RDKit          3D

 43 45  0  0  0  0  0  0  0  0999 V2000
   20.9956   70.5523   -0.4827 P   0  0  2  0  0  0  0  0  0  0  0  0
   21.6753   69.4619    0.5011 O   0  0  0  0  0  0  0  0  0  0  0  0
   20.7770   71.9061    0.1266 O   0  0  0  0  0  0  0  0  0  0  0  0
   19.6689   69.8064   -1.0319 O   0  0  0  0  0  0  0  0  0  0  0  0
   19.3447   69.9272   -2.4048 C   0  0  0  0  0  0  0  0  0  0  0  0
   17.3038   68.8922   -1.6690 O   0  0  0  0  0  0  0  0  0  0  0  0
   16.9045   68.0782   -4.5272 O   0  0  0  0  0  0  0  0  0  0  0  0
   15.2574   70.2382   -4.2871 O   0  0  0  0  0  0  0  0  0  0  0  0
   17.4725   69.2774   -4.0001 C   0  0  1  0  0  0  0  0  0  0  0  0
   16.3854   70.1702   -3.4401 C   0  0  2  0  0  0  0  0  0  0  0  0
   18.2614   68.9134   -2.7497 C   0  0  1  0  0  0  0  0  0  0  0  0
   16.0797   69.4996   -2.1117 C   0  0  2  0  0  0  0  0  0  0  0  0
   16.3954   68.2855   -5.3270 H   0  0  0  0  0  0  0  0  0  0  0  0
   15.5035   70.6733   -5.1191 H   0  0  0  0  0  0  0  0  0  0  0  0
   14.0292   68.9794   -0.2405 O   0  0  0  0  0  0  0  0  0  0  0  0
   14.4560   73.1556    1.6625 O   0  0  0  0  0  0  0  0  0  0  0  0
   15.6349   70.4332   -1.1161 N   0  0  0  0  0  0  0  0  0  0  0  0
   14.2430   71.0603    0.7048 N   0  0  0  0  0  0  0  0  0  0  0  0
   14.5973   70.0730   -0.2241 C   0  0  0  0  0  0  0  0  0  0  0  0
   16.2253   71.6881   -1.0291 C   0  0  0  0  0  0  0  0  0  0  0  0
   15.8770   72.6186   -0.1382 C   0  0  0  0  0  0  0  0  0  0  0  0
   14.8004   72.3225    0.8296 C   0  0  0  0  0  0  0  0  0  0  0  0
   13.5215   70.8333    1.3351 H   0  0  0  0  0  0  0  0  0  0  0  0
   21.9761   70.5426   -1.7678 O   0  0  0  0  0  0  0  0  0  0  0  0
   22.8168   71.7314   -2.4703 P   0  0  2  0  0  0  0  0  0  0  0  0
   24.0421   70.9478   -3.1810 O   0  0  0  0  0  0  0  0  0  0  0  0
   23.2424   72.8228   -1.5314 O   0  0  0  0  0  0  0  0  0  0  0  0
   21.8857   72.2245   -3.6920 O   0  0  0  0  0  0  0  0  0  0  0  0
   20.7354   71.2373   -5.5117 O   0  0  0  0  0  0  0  0  0  0  0  0
   22.5155   74.5013   -7.3134 O   0  0  0  0  0  0  0  0  0  0  0  0
   23.9951   72.8876   -5.3792 O   0  0  0  0  0  0  0  0  0  0  0  0
   19.6723   74.5387   -6.7088 O   0  0  0  0  0  0  0  0  0  0  0  0
   21.9090   73.7712   -6.2471 C   0  0  2  0  0  0  0  0  0  0  0  0
   22.7401   72.5245   -5.9428 C   0  0  2  0  0  0  0  0  0  0  0  0
   20.4978   73.3757   -6.6875 C   0  0  1  0  0  0  0  0  0  0  0  0
   22.0055   71.6014   -4.9696 C   0  0  1  0  0  0  0  0  0  0  0  0
   19.8812   72.3573   -5.7329 C   0  0  1  0  0  0  0  0  0  0  0  0
   23.4136   74.7632   -7.0563 H   0  0  0  0  0  0  0  0  0  0  0  0
   24.4666   73.4736   -5.9913 H   0  0  0  0  0  0  0  0  0  0  0  0
   20.0538   75.1949   -7.3127 H   0  0  0  0  0  0  0  0  0  0  0  0
   18.9789   70.5819   -6.9719 O   0  0  0  0  0  0  0  0  0  0  0  0
   17.5331   72.1969   -6.2644 O   0  0  0  0  0  0  0  0  0  0  0  0
   18.6627   71.7363   -6.3345 C   0  0  0  0  0  0  0  0  0  0  0  0
  1  4  1  0
  1 24  1  0
  1  2  1  1
  1  3  2  0
 25 28  1  0
 25 24  1  0
 25 26  1  6
 25 27  2  0
  6 11  1  0
  6 12  1  0
 29 36  1  0
 29 37  1  0
  9  7  1  1
  7 13  1  0
 10  8  1  6
  8 14  1  0
  4  5  1  0
 36 28  1  1
 33 30  1  6
 30 38  1  0
 34 31  1  1
 31 39  1  0
 35 32  1  1
 32 40  1  0
 41 43  1  0
 15 19  2  0
 42 43  2  0
 16 22  2  0
 12 17  1  1
 17 19  1  0
 17 20  1  0
 18 19  1  0
 18 22  1  0
 18 23  1  0
  9 10  1  0
  9 11  1  0
 10 12  1  0
 11  5  1  1
 33 34  1  0
 33 35  1  0
 34 36  1  0
 35 37  1  0
 37 43  1  6
 20 21  2  0
 21 22  1  0
M  CHG  3   2  -1  26  -1  41  -1
M  END
>  <COMPND>  (101) 
    udp_gluA.pdb 

>  <AUTHOR>  (101) 
    GENERATED BY OPEN BABEL 3.1.1

>  <MASTER>  (101) 
        0    0    0    0    0    0    0    0   56    0   56    0

>  <minimizedAffinity>  (101) 
-7.44313

>  <CNNscore>  (101) 
0.7808417678

>  <CNNaffinity>  (101) 
4.3209900856

>  <CNN_VS>  (101) 
3.3740096092

>  <CNNaffinity_variance>  (101) 
0.1511630714

$$$$
102
     RDKit          3D

 43 45  0  0  0  0  0  0  0  0999 V2000
   21.2691   70.5052   -0.4824 P   0  0  2  0  0  0  0  0  0  0  0  0
   21.6685   69.4049    0.6350 O   0  0  0  0  0  0  0  0  0  0  0  0
   20.5682   71.7214    0.0481 O   0  0  0  0  0  0  0  0  0  0  0  0
   20.4561   69.6540   -1.5926 O   0  0  0  0  0  0  0  0  0  0  0  0
   19.2818   70.2162   -2.1490 C   0  0  0  0  0  0  0  0  0  0  0  0
   17.3493   68.9454   -1.4946 O   0  0  0  0  0  0  0  0  0  0  0  0
   17.1357   68.1377   -4.3745 O   0  0  0  0  0  0  0  0  0  0  0  0
   15.2473   70.0935   -4.1625 O   0  0  0  0  0  0  0  0  0  0  0  0
   17.5469   69.3848   -3.8138 C   0  0  1  0  0  0  0  0  0  0  0  0
   16.3484   70.1398   -3.2793 C   0  0  2  0  0  0  0  0  0  0  0  0
   18.3320   69.0921   -2.5425 C   0  0  1  0  0  0  0  0  0  0  0  0
   16.0788   69.4175   -1.9702 C   0  0  2  0  0  0  0  0  0  0  0  0
   16.6320   68.2991   -5.1881 H   0  0  0  0  0  0  0  0  0  0  0  0
   15.4687   70.5670   -4.9803 H   0  0  0  0  0  0  0  0  0  0  0  0
   14.1105   68.6120   -0.1119 O   0  0  0  0  0  0  0  0  0  0  0  0
   13.9284   72.8066    1.7897 O   0  0  0  0  0  0  0  0  0  0  0  0
   15.4996   70.2788   -0.9784 N   0  0  0  0  0  0  0  0  0  0  0  0
   14.0210   70.7022    0.8328 N   0  0  0  0  0  0  0  0  0  0  0  0
   14.5177   69.7751   -0.0928 C   0  0  0  0  0  0  0  0  0  0  0  0
   15.9056   71.6047   -0.8888 C   0  0  0  0  0  0  0  0  0  0  0  0
   15.4230   72.4764   -0.0011 C   0  0  0  0  0  0  0  0  0  0  0  0
   14.3930   72.0307    0.9600 C   0  0  0  0  0  0  0  0  0  0  0  0
   13.3348   70.3753    1.4586 H   0  0  0  0  0  0  0  0  0  0  0  0
   22.6780   70.8060   -1.2153 O   0  0  0  0  0  0  0  0  0  0  0  0
   24.0530   71.4427   -0.6516 P   0  0  2  0  0  0  0  0  0  0  0  0
   24.2473   72.7676   -1.5611 O   0  0  0  0  0  0  0  0  0  0  0  0
   25.2220   70.5009   -0.6732 O   0  0  0  0  0  0  0  0  0  0  0  0
   23.6737   72.0054    0.8119 O   0  0  0  0  0  0  0  0  0  0  0  0
   25.4215   71.4119    2.2958 O   0  0  0  0  0  0  0  0  0  0  0  0
   22.8284   73.4172    4.8104 O   0  0  0  0  0  0  0  0  0  0  0  0
   21.8054   71.5402    2.8192 O   0  0  0  0  0  0  0  0  0  0  0  0
   25.2656   74.7106    3.8948 O   0  0  0  0  0  0  0  0  0  0  0  0
   23.4800   73.1250    3.5742 C   0  0  2  0  0  0  0  0  0  0  0  0
   23.1782   71.6832    3.1649 C   0  0  2  0  0  0  0  0  0  0  0  0
   24.9848   73.3172    3.7759 C   0  0  1  0  0  0  0  0  0  0  0  0
   24.0386   71.2614    1.9730 C   0  0  1  0  0  0  0  0  0  0  0  0
   25.7803   72.7580    2.5999 C   0  0  1  0  0  0  0  0  0  0  0  0
   21.8708   73.3017    4.7065 H   0  0  0  0  0  0  0  0  0  0  0  0
   21.2537   71.8064    3.5709 H   0  0  0  0  0  0  0  0  0  0  0  0
   24.7652   75.0788    4.6397 H   0  0  0  0  0  0  0  0  0  0  0  0
   27.6498   71.3632    2.8474 O   0  0  0  0  0  0  0  0  0  0  0  0
   27.9467   73.5847    3.2668 O   0  0  0  0  0  0  0  0  0  0  0  0
   27.2301   72.6491    2.9441 C   0  0  0  0  0  0  0  0  0  0  0  0
  1  4  1  0
  1 24  1  0
  1  2  1  1
  1  3  2  0
 25 28  1  0
 25 24  1  0
 25 26  1  6
 25 27  2  0
  6 11  1  0
  6 12  1  0
 29 36  1  0
 29 37  1  0
  9  7  1  1
  7 13  1  0
 10  8  1  6
  8 14  1  0
  4  5  1  0
 36 28  1  6
 33 30  1  1
 30 38  1  0
 34 31  1  6
 31 39  1  0
 35 32  1  6
 32 40  1  0
 41 43  1  0
 15 19  2  0
 42 43  2  0
 16 22  2  0
 12 17  1  1
 17 19  1  0
 17 20  1  0
 18 19  1  0
 18 22  1  0
 18 23  1  0
  9 10  1  0
  9 11  1  0
 10 12  1  0
 11  5  1  1
 33 34  1  0
 33 35  1  0
 34 36  1  0
 35 37  1  0
 37 43  1  1
 20 21  2  0
 21 22  1  0
M  CHG  3   2  -1  26  -1  41  -1
M  END
>  <COMPND>  (102) 
    udp_gluA.pdb 

>  <AUTHOR>  (102) 
    GENERATED BY OPEN BABEL 3.1.1

>  <MASTER>  (102) 
        0    0    0    0    0    0    0    0   56    0   56    0

>  <minimizedAffinity>  (102) 
-7.84043

>  <CNNscore>  (102) 
0.7801685929

>  <CNNaffinity>  (102) 
4.3823995590

>  <CNN_VS>  (102) 
3.4190104008

>  <CNNaffinity_variance>  (102) 
0.1900360435

$$$$
103
     RDKit          3D

 43 45  0  0  0  0  0  0  0  0999 V2000
   21.0722   72.0991   -3.8081 P   0  0  2  0  0  0  0  0  0  0  0  0
   20.1985   73.4250   -4.1204 O   0  0  0  0  0  0  0  0  0  0  0  0
   21.2137   71.1477   -4.9600 O   0  0  0  0  0  0  0  0  0  0  0  0
   20.3902   71.4899   -2.4734 O   0  0  0  0  0  0  0  0  0  0  0  0
   18.9772   71.4441   -2.3967 C   0  0  0  0  0  0  0  0  0  0  0  0
   17.7538   69.6752   -1.3234 O   0  0  0  0  0  0  0  0  0  0  0  0
   17.6691   68.3534   -4.0135 O   0  0  0  0  0  0  0  0  0  0  0  0
   15.1836   69.4573   -3.8135 O   0  0  0  0  0  0  0  0  0  0  0  0
   17.5951   69.7411   -3.6858 C   0  0  1  0  0  0  0  0  0  0  0  0
   16.2379   70.0699   -3.1010 C   0  0  2  0  0  0  0  0  0  0  0  0
   18.5212   69.9947   -2.5042 C   0  0  1  0  0  0  0  0  0  0  0  0
   16.3694   69.5419   -1.6826 C   0  0  2  0  0  0  0  0  0  0  0  0
   17.0855   68.1670   -4.7661 H   0  0  0  0  0  0  0  0  0  0  0  0
   15.1412   69.8274   -4.7097 H   0  0  0  0  0  0  0  0  0  0  0  0
   14.3096   68.4208   -0.1088 O   0  0  0  0  0  0  0  0  0  0  0  0
   13.3708   72.4735    1.8757 O   0  0  0  0  0  0  0  0  0  0  0  0
   15.5708   70.2813   -0.7464 N   0  0  0  0  0  0  0  0  0  0  0  0
   13.8433   70.4406    0.8774 N   0  0  0  0  0  0  0  0  0  0  0  0
   14.5611   69.6229   -0.0054 C   0  0  0  0  0  0  0  0  0  0  0  0
   15.7920   71.6416   -0.5685 C   0  0  0  0  0  0  0  0  0  0  0  0
   15.0997   72.4077    0.2768 C   0  0  0  0  0  0  0  0  0  0  0  0
   14.0262   71.7976    1.0884 C   0  0  0  0  0  0  0  0  0  0  0  0
   13.1337   70.0050    1.4028 H   0  0  0  0  0  0  0  0  0  0  0  0
   22.4670   72.7045   -3.2596 O   0  0  0  0  0  0  0  0  0  0  0  0
   23.9060   72.0072   -3.0214 P   0  0  2  0  0  0  0  0  0  0  0  0
   24.8050   72.5904   -4.2347 O   0  0  0  0  0  0  0  0  0  0  0  0
   23.8599   70.5082   -2.9511 O   0  0  0  0  0  0  0  0  0  0  0  0
   24.4933   72.7217   -1.6996 O   0  0  0  0  0  0  0  0  0  0  0  0
   22.5978   72.4341   -0.3090 O   0  0  0  0  0  0  0  0  0  0  0  0
   25.5402   73.3187    2.4528 O   0  0  0  0  0  0  0  0  0  0  0  0
   25.3834   74.7896   -0.0664 O   0  0  0  0  0  0  0  0  0  0  0  0
   24.6032   70.5842    2.1442 O   0  0  0  0  0  0  0  0  0  0  0  0
   25.0088   72.7810    1.2418 C   0  0  2  0  0  0  0  0  0  0  0  0
   24.3799   73.9036    0.4160 C   0  0  2  0  0  0  0  0  0  0  0  0
   23.9532   71.7365    1.6113 C   0  0  1  0  0  0  0  0  0  0  0  0
   23.6014   73.3382   -0.7727 C   0  0  1  0  0  0  0  0  0  0  0  0
   23.1355   71.3159    0.3935 C   0  0  1  0  0  0  0  0  0  0  0  0
   26.2134   73.9851    2.2429 H   0  0  0  0  0  0  0  0  0  0  0  0
   25.8815   75.1519    0.6826 H   0  0  0  0  0  0  0  0  0  0  0  0
   25.1273   70.8383    2.9199 H   0  0  0  0  0  0  0  0  0  0  0  0
   21.0585   71.3707    1.4818 O   0  0  0  0  0  0  0  0  0  0  0  0
   21.7064   69.3806    0.5770 O   0  0  0  0  0  0  0  0  0  0  0  0
   21.9143   70.5621    0.8092 C   0  0  0  0  0  0  0  0  0  0  0  0
  1  4  1  0
  1 24  1  0
  1  2  1  6
  1  3  2  0
 25 28  1  0
 25 24  1  0
 25 26  1  6
 25 27  2  0
  6 11  1  0
  6 12  1  0
 29 36  1  0
 29 37  1  0
  9  7  1  1
  7 13  1  0
 10  8  1  6
  8 14  1  0
  4  5  1  0
 36 28  1  6
 33 30  1  1
 30 38  1  0
 34 31  1  6
 31 39  1  0
 35 32  1  6
 32 40  1  0
 41 43  1  0
 15 19  2  0
 42 43  2  0
 16 22  2  0
 12 17  1  1
 17 19  1  0
 17 20  1  0
 18 19  1  0
 18 22  1  0
 18 23  1  0
  9 10  1  0
  9 11  1  0
 10 12  1  0
 11  5  1  1
 33 34  1  0
 33 35  1  0
 34 36  1  0
 35 37  1  0
 37 43  1  1
 20 21  2  0
 21 22  1  0
M  CHG  3   2  -1  26  -1  41  -1
M  END
>  <COMPND>  (103) 
    udp_gluA.pdb 

>  <AUTHOR>  (103) 
    GENERATED BY OPEN BABEL 3.1.1

>  <MASTER>  (103) 
        0    0    0    0    0    0    0    0   56    0   56    0

>  <minimizedAffinity>  (103) 
-7.07246

>  <CNNscore>  (103) 
0.7773142457

>  <CNNaffinity>  (103) 
4.4824914932

>  <CNN_VS>  (103) 
3.4843044281

>  <CNNaffinity_variance>  (103) 
0.2141980231

$$$$
104
     RDKit          3D

 43 45  0  0  0  0  0  0  0  0999 V2000
   21.0263   70.9461   -1.0073 P   0  0  2  0  0  0  0  0  0  0  0  0
   19.9727   69.7396   -1.2376 O   0  0  0  0  0  0  0  0  0  0  0  0
   20.4911   72.1158   -0.2344 O   0  0  0  0  0  0  0  0  0  0  0  0
   21.5699   71.2765   -2.4950 O   0  0  0  0  0  0  0  0  0  0  0  0
   21.0588   72.4146   -3.1643 C   0  0  0  0  0  0  0  0  0  0  0  0
   21.1733   71.1810   -5.2242 O   0  0  0  0  0  0  0  0  0  0  0  0
   21.8685   73.7888   -6.5310 O   0  0  0  0  0  0  0  0  0  0  0  0
   19.2257   73.5033   -7.1393 O   0  0  0  0  0  0  0  0  0  0  0  0
   20.9734   73.5305   -5.4490 C   0  0  1  0  0  0  0  0  0  0  0  0
   19.7031   72.8861   -5.9622 C   0  0  2  0  0  0  0  0  0  0  0  0
   21.5731   72.4194   -4.5982 C   0  0  1  0  0  0  0  0  0  0  0  0
   20.1480   71.4520   -6.1930 C   0  0  2  0  0  0  0  0  0  0  0  0
   21.5066   74.4955   -7.0888 H   0  0  0  0  0  0  0  0  0  0  0  0
   18.9549   74.4138   -6.9400 H   0  0  0  0  0  0  0  0  0  0  0  0
   18.8485   70.0994   -8.3045 O   0  0  0  0  0  0  0  0  0  0  0  0
   16.0560   67.8644   -5.3975 O   0  0  0  0  0  0  0  0  0  0  0  0
   19.0781   70.5112   -6.0162 N   0  0  0  0  0  0  0  0  0  0  0  0
   17.4583   68.9883   -6.8547 N   0  0  0  0  0  0  0  0  0  0  0  0
   18.4936   69.8870   -7.1435 C   0  0  0  0  0  0  0  0  0  0  0  0
   18.6199   70.2141   -4.7385 C   0  0  0  0  0  0  0  0  0  0  0  0
   17.6321   69.3551   -4.4789 C   0  0  0  0  0  0  0  0  0  0  0  0
   16.9674   68.6608   -5.6012 C   0  0  0  0  0  0  0  0  0  0  0  0
   17.0344   68.5428   -7.6236 H   0  0  0  0  0  0  0  0  0  0  0  0
   22.2847   70.2023   -0.3174 O   0  0  0  0  0  0  0  0  0  0  0  0
   23.6838   70.7848    0.2455 P   0  0  2  0  0  0  0  0  0  0  0  0
   24.2820   71.5977   -1.0200 O   0  0  0  0  0  0  0  0  0  0  0  0
   24.6070   69.7394    0.8014 O   0  0  0  0  0  0  0  0  0  0  0  0
   23.2563   71.9291    1.2993 O   0  0  0  0  0  0  0  0  0  0  0  0
   24.4599   71.9943    3.3380 O   0  0  0  0  0  0  0  0  0  0  0  0
   21.2714   74.4881    4.1640 O   0  0  0  0  0  0  0  0  0  0  0  0
   20.8587   71.9895    2.7077 O   0  0  0  0  0  0  0  0  0  0  0  0
   23.8987   75.6089    3.6235 O   0  0  0  0  0  0  0  0  0  0  0  0
   22.2601   73.8648    3.3442 C   0  0  2  0  0  0  0  0  0  0  0  0
   22.0653   72.3486    3.3708 C   0  0  2  0  0  0  0  0  0  0  0  0
   23.6371   74.2344    3.9003 C   0  0  1  0  0  0  0  0  0  0  0  0
   23.2366   71.6346    2.6949 C   0  0  1  0  0  0  0  0  0  0  0  0
   24.7389   73.3907    3.2657 C   0  0  1  0  0  0  0  0  0  0  0  0
   20.3878   74.2673    3.8297 H   0  0  0  0  0  0  0  0  0  0  0  0
   20.1112   72.4392    3.1312 H   0  0  0  0  0  0  0  0  0  0  0  0
   23.2045   76.1568    4.0219 H   0  0  0  0  0  0  0  0  0  0  0  0
   25.8192   74.2350    5.1687 O   0  0  0  0  0  0  0  0  0  0  0  0
   27.0876   73.0435    3.6954 O   0  0  0  0  0  0  0  0  0  0  0  0
   26.0139   73.5183    4.0341 C   0  0  0  0  0  0  0  0  0  0  0  0
  1  4  1  0
  1 24  1  0
  1  2  1  6
  1  3  2  0
 25 28  1  0
 25 24  1  0
 25 26  1  6
 25 27  2  0
  6 11  1  0
  6 12  1  0
 29 36  1  0
 29 37  1  0
  9  7  1  6
  7 13  1  0
 10  8  1  6
  8 14  1  0
  4  5  1  0
 36 28  1  6
 33 30  1  1
 30 38  1  0
 34 31  1  6
 31 39  1  0
 35 32  1  6
 32 40  1  0
 41 43  1  0
 15 19  2  0
 42 43  2  0
 16 22  2  0
 12 17  1  1
 17 19  1  0
 17 20  1  0
 18 19  1  0
 18 22  1  0
 18 23  1  0
  9 10  1  0
  9 11  1  0
 10 12  1  0
 11  5  1  1
 33 34  1  0
 33 35  1  0
 34 36  1  0
 35 37  1  0
 37 43  1  1
 20 21  2  0
 21 22  1  0
M  CHG  3   2  -1  26  -1  41  -1
M  END
>  <COMPND>  (104) 
    udp_gluA.pdb 

>  <AUTHOR>  (104) 
    GENERATED BY OPEN BABEL 3.1.1

>  <MASTER>  (104) 
        0    0    0    0    0    0    0    0   56    0   56    0

>  <minimizedAffinity>  (104) 
-6.74104

>  <CNNscore>  (104) 
0.7449158430

>  <CNNaffinity>  (104) 
4.3593750000

>  <CNN_VS>  (104) 
3.2473676205

>  <CNNaffinity_variance>  (104) 
0.0326974168

$$$$
105
     RDKit          3D

 43 45  0  0  0  0  0  0  0  0999 V2000
   24.2384   72.2195   -3.1214 P   0  0  2  0  0  0  0  0  0  0  0  0
   24.8692   73.5131   -3.8613 O   0  0  0  0  0  0  0  0  0  0  0  0
   25.1697   71.0507   -2.9854 O   0  0  0  0  0  0  0  0  0  0  0  0
   22.8690   71.9357   -3.9352 O   0  0  0  0  0  0  0  0  0  0  0  0
   22.3107   72.9842   -4.7056 C   0  0  0  0  0  0  0  0  0  0  0  0
   21.2486   71.1233   -5.7950 O   0  0  0  0  0  0  0  0  0  0  0  0
   20.7548   72.9884   -8.0904 O   0  0  0  0  0  0  0  0  0  0  0  0
   18.3347   72.9347   -6.8351 O   0  0  0  0  0  0  0  0  0  0  0  0
   20.7402   73.2574   -6.6883 C   0  0  1  0  0  0  0  0  0  0  0  0
   19.4876   72.6863   -6.0581 C   0  0  2  0  0  0  0  0  0  0  0  0
   21.8337   72.4209   -6.0381 C   0  0  1  0  0  0  0  0  0  0  0  0
   19.8253   71.2078   -5.9690 C   0  0  2  0  0  0  0  0  0  0  0  0
   20.0643   73.5116   -8.5276 H   0  0  0  0  0  0  0  0  0  0  0  0
   18.1618   73.8894   -6.8609 H   0  0  0  0  0  0  0  0  0  0  0  0
   17.3279   69.8974   -6.1175 O   0  0  0  0  0  0  0  0  0  0  0  0
   17.4461   68.7738   -1.6490 O   0  0  0  0  0  0  0  0  0  0  0  0
   19.1803   70.5643   -4.8596 N   0  0  0  0  0  0  0  0  0  0  0  0
   17.3887   69.3399   -3.8915 N   0  0  0  0  0  0  0  0  0  0  0  0
   17.9261   69.9347   -5.0406 C   0  0  0  0  0  0  0  0  0  0  0  0
   19.7895   70.5595   -3.6107 C   0  0  0  0  0  0  0  0  0  0  0  0
   19.2650   69.9882   -2.5247 C   0  0  0  0  0  0  0  0  0  0  0  0
   17.9565   69.3096   -2.6281 C   0  0  0  0  0  0  0  0  0  0  0  0
   16.5151   68.8971   -3.9923 H   0  0  0  0  0  0  0  0  0  0  0  0
   23.7091   72.8254   -1.7195 O   0  0  0  0  0  0  0  0  0  0  0  0
   22.6043   72.2756   -0.6752 P   0  0  2  0  0  0  0  0  0  0  0  0
   22.7066   70.6686   -0.8404 O   0  0  0  0  0  0  0  0  0  0  0  0
   21.2262   72.8324   -0.8867 O   0  0  0  0  0  0  0  0  0  0  0  0
   23.2316   72.5760    0.7804 O   0  0  0  0  0  0  0  0  0  0  0  0
   25.0416   71.4971    1.8616 O   0  0  0  0  0  0  0  0  0  0  0  0
   22.7163   72.6596    5.0725 O   0  0  0  0  0  0  0  0  0  0  0  0
   21.4774   71.5416    2.6747 O   0  0  0  0  0  0  0  0  0  0  0  0
   25.1481   74.1165    4.4286 O   0  0  0  0  0  0  0  0  0  0  0  0
   23.2716   72.7608    3.7612 C   0  0  2  0  0  0  0  0  0  0  0  0
   22.8750   71.5327    2.9414 C   0  0  2  0  0  0  0  0  0  0  0  0
   24.7937   72.8413    3.8971 C   0  0  1  0  0  0  0  0  0  0  0  0
   23.6350   71.4918    1.6149 C   0  0  1  0  0  0  0  0  0  0  0  0
   25.4835   72.6666    2.5472 C   0  0  1  0  0  0  0  0  0  0  0  0
   21.7495   72.6071    5.0113 H   0  0  0  0  0  0  0  0  0  0  0  0
   20.9890   71.5678    3.5121 H   0  0  0  0  0  0  0  0  0  0  0  0
   24.7154   74.2403    5.2879 H   0  0  0  0  0  0  0  0  0  0  0  0
   27.6094   73.5841    2.9221 O   0  0  0  0  0  0  0  0  0  0  0  0
   27.4780   71.3181    2.7051 O   0  0  0  0  0  0  0  0  0  0  0  0
   26.9457   72.4177    2.7270 C   0  0  0  0  0  0  0  0  0  0  0  0
  1  4  1  0
  1 24  1  0
  1  2  1  6
  1  3  2  0
 25 28  1  0
 25 24  1  0
 25 26  1  6
 25 27  2  0
  6 11  1  0
  6 12  1  0
 29 36  1  0
 29 37  1  0
  9  7  1  6
  7 13  1  0
 10  8  1  6
  8 14  1  0
  4  5  1  0
 36 28  1  6
 33 30  1  1
 30 38  1  0
 34 31  1  6
 31 39  1  0
 35 32  1  6
 32 40  1  0
 41 43  1  0
 15 19  2  0
 42 43  2  0
 16 22  2  0
 12 17  1  1
 17 19  1  0
 17 20  1  0
 18 19  1  0
 18 22  1  0
 18 23  1  0
  9 10  1  0
  9 11  1  0
 10 12  1  0
 11  5  1  1
 33 34  1  0
 33 35  1  0
 34 36  1  0
 35 37  1  0
 37 43  1  1
 20 21  2  0
 21 22  1  0
M  CHG  3   2  -1  26  -1  41  -1
M  END
>  <COMPND>  (105) 
    udp_gluA.pdb 

>  <AUTHOR>  (105) 
    GENERATED BY OPEN BABEL 3.1.1

>  <MASTER>  (105) 
        0    0    0    0    0    0    0    0   56    0   56    0

>  <minimizedAffinity>  (105) 
-7.89639

>  <CNNscore>  (105) 
0.6857592463

>  <CNNaffinity>  (105) 
4.3556928635

>  <CNN_VS>  (105) 
2.9869565964

>  <CNNaffinity_variance>  (105) 
0.1487330645

$$$$
106
     RDKit          3D

 43 45  0  0  0  0  0  0  0  0999 V2000
   22.0894   73.8321   -2.4058 P   0  0  2  0  0  0  0  0  0  0  0  0
   21.2851   73.0294   -1.2536 O   0  0  0  0  0  0  0  0  0  0  0  0
   22.4331   75.2527   -2.0659 O   0  0  0  0  0  0  0  0  0  0  0  0
   21.1812   73.6262   -3.7289 O   0  0  0  0  0  0  0  0  0  0  0  0
   21.5327   74.3295   -4.9064 C   0  0  0  0  0  0  0  0  0  0  0  0
   22.0491   72.1139   -5.6825 O   0  0  0  0  0  0  0  0  0  0  0  0
   23.8113   73.4379   -7.7155 O   0  0  0  0  0  0  0  0  0  0  0  0
   21.5796   72.8367   -9.1626 O   0  0  0  0  0  0  0  0  0  0  0  0
   22.5560   73.8695   -7.1897 C   0  0  1  0  0  0  0  0  0  0  0  0
   21.4308   73.0414   -7.7732 C   0  0  2  0  0  0  0  0  0  0  0  0
   22.5055   73.4835   -5.7178 C   0  0  1  0  0  0  0  0  0  0  0  0
   21.5422   71.7524   -6.9770 C   0  0  2  0  0  0  0  0  0  0  0  0
   23.8669   73.6735   -8.6552 H   0  0  0  0  0  0  0  0  0  0  0  0
   21.5005   73.6864   -9.6249 H   0  0  0  0  0  0  0  0  0  0  0  0
   20.1717   70.4012   -9.0440 O   0  0  0  0  0  0  0  0  0  0  0  0
   16.6882   69.2724   -6.2448 O   0  0  0  0  0  0  0  0  0  0  0  0
   20.2754   71.0965   -6.8159 N   0  0  0  0  0  0  0  0  0  0  0  0
   18.4376   69.8412   -7.6481 N   0  0  0  0  0  0  0  0  0  0  0  0
   19.6718   70.4467   -7.9184 C   0  0  0  0  0  0  0  0  0  0  0  0
   19.6453   71.0997   -5.5774 C   0  0  0  0  0  0  0  0  0  0  0  0
   18.4689   70.5181   -5.3352 C   0  0  0  0  0  0  0  0  0  0  0  0
   17.7712   69.8182   -6.4337 C   0  0  0  0  0  0  0  0  0  0  0  0
   17.9970   69.3842   -8.4007 H   0  0  0  0  0  0  0  0  0  0  0  0
   23.3647   72.8800   -2.6886 O   0  0  0  0  0  0  0  0  0  0  0  0
   23.8342   71.4995   -1.9904 P   0  0  2  0  0  0  0  0  0  0  0  0
   25.2311   71.1642   -2.7364 O   0  0  0  0  0  0  0  0  0  0  0  0
   22.8167   70.3977   -2.0587 O   0  0  0  0  0  0  0  0  0  0  0  0
   24.2631   71.9229   -0.4940 O   0  0  0  0  0  0  0  0  0  0  0  0
   25.6727   71.1104    1.2272 O   0  0  0  0  0  0  0  0  0  0  0  0
   22.2279   72.0177    3.3197 O   0  0  0  0  0  0  0  0  0  0  0  0
   22.0756   70.7029    0.7154 O   0  0  0  0  0  0  0  0  0  0  0  0
   24.5425   73.7683    3.4900 O   0  0  0  0  0  0  0  0  0  0  0  0
   23.2032   72.1664    2.2879 C   0  0  2  0  0  0  0  0  0  0  0  0
   23.2739   70.8820    1.4615 C   0  0  2  0  0  0  0  0  0  0  0  0
   24.5536   72.4480    2.9505 C   0  0  1  0  0  0  0  0  0  0  0  0
   24.4605   70.9164    0.4974 C   0  0  1  0  0  0  0  0  0  0  0  0
   25.6992   72.3402    1.9483 C   0  0  1  0  0  0  0  0  0  0  0  0
   21.3613   71.8379    2.9223 H   0  0  0  0  0  0  0  0  0  0  0  0
   21.3185   70.6804    1.3209 H   0  0  0  0  0  0  0  0  0  0  0  0
   23.8177   73.8503    4.1294 H   0  0  0  0  0  0  0  0  0  0  0  0
   27.3915   73.5266    3.0573 O   0  0  0  0  0  0  0  0  0  0  0  0
   27.6705   71.2739    2.8418 O   0  0  0  0  0  0  0  0  0  0  0  0
   27.0163   72.2882    2.6517 C   0  0  0  0  0  0  0  0  0  0  0  0
  1  4  1  0
  1 24  1  0
  1  2  1  1
  1  3  2  0
 25 28  1  0
 25 24  1  0
 25 26  1  6
 25 27  2  0
  6 11  1  0
  6 12  1  0
 29 36  1  0
 29 37  1  0
  9  7  1  6
  7 13  1  0
 10  8  1  6
  8 14  1  0
  4  5  1  0
 36 28  1  6
 33 30  1  1
 30 38  1  0
 34 31  1  6
 31 39  1  0
 35 32  1  6
 32 40  1  0
 41 43  1  0
 15 19  2  0
 42 43  2  0
 16 22  2  0
 12 17  1  1
 17 19  1  0
 17 20  1  0
 18 19  1  0
 18 22  1  0
 18 23  1  0
  9 10  1  0
  9 11  1  0
 10 12  1  0
 11  5  1  1
 33 34  1  0
 33 35  1  0
 34 36  1  0
 35 37  1  0
 37 43  1  1
 20 21  2  0
 21 22  1  0
M  CHG  3   2  -1  26  -1  41  -1
M  END
>  <COMPND>  (106) 
    udp_gluA.pdb 

>  <AUTHOR>  (106) 
    GENERATED BY OPEN BABEL 3.1.1

>  <MASTER>  (106) 
        0    0    0    0    0    0    0    0   56    0   56    0

>  <minimizedAffinity>  (106) 
-7.30196

>  <CNNscore>  (106) 
0.6523329616

>  <CNNaffinity>  (106) 
4.3992967606

>  <CNN_VS>  (106) 
2.8698062897

>  <CNNaffinity_variance>  (106) 
0.0177905299

$$$$
107
     RDKit          3D

 43 45  0  0  0  0  0  0  0  0999 V2000
   21.5072   70.4929   -0.7107 P   0  0  2  0  0  0  0  0  0  0  0  0
   21.7668   69.5089    0.5477 O   0  0  0  0  0  0  0  0  0  0  0  0
   21.0678   71.8814   -0.3492 O   0  0  0  0  0  0  0  0  0  0  0  0
   20.4919   69.6577   -1.6539 O   0  0  0  0  0  0  0  0  0  0  0  0
   19.2242   70.2172   -1.9444 C   0  0  0  0  0  0  0  0  0  0  0  0
   17.2653   68.9047   -1.4776 O   0  0  0  0  0  0  0  0  0  0  0  0
   17.2136   68.2785   -4.4096 O   0  0  0  0  0  0  0  0  0  0  0  0
   15.3065   70.2140   -4.1800 O   0  0  0  0  0  0  0  0  0  0  0  0
   17.5872   69.4887   -3.7505 C   0  0  1  0  0  0  0  0  0  0  0  0
   16.3574   70.2067   -3.2365 C   0  0  2  0  0  0  0  0  0  0  0  0
   18.3031   69.1184   -2.4587 C   0  0  1  0  0  0  0  0  0  0  0  0
   16.0203   69.4035   -1.9918 C   0  0  2  0  0  0  0  0  0  0  0  0
   16.7544   68.4895   -5.2380 H   0  0  0  0  0  0  0  0  0  0  0  0
   15.5698   70.7381   -4.9532 H   0  0  0  0  0  0  0  0  0  0  0  0
   13.9804   68.4701   -0.2761 O   0  0  0  0  0  0  0  0  0  0  0  0
   13.6491   72.5475    1.8474 O   0  0  0  0  0  0  0  0  0  0  0  0
   15.3834   70.2000   -0.9815 N   0  0  0  0  0  0  0  0  0  0  0  0
   13.8166   70.5021    0.7792 N   0  0  0  0  0  0  0  0  0  0  0  0
   14.3691   69.6351   -0.1727 C   0  0  0  0  0  0  0  0  0  0  0  0
   15.7652   71.5235   -0.7987 C   0  0  0  0  0  0  0  0  0  0  0  0
   15.2294   72.3375    0.1130 C   0  0  0  0  0  0  0  0  0  0  0  0
   14.1628   71.8256    0.9982 C   0  0  0  0  0  0  0  0  0  0  0  0
   13.1071   70.1319    1.3528 H   0  0  0  0  0  0  0  0  0  0  0  0
   22.9025   70.4184   -1.5234 O   0  0  0  0  0  0  0  0  0  0  0  0
   23.7313   71.5578   -2.3161 P   0  0  2  0  0  0  0  0  0  0  0  0
   25.1721   70.8626   -2.5634 O   0  0  0  0  0  0  0  0  0  0  0  0
   23.7958   72.8788   -1.6057 O   0  0  0  0  0  0  0  0  0  0  0  0
   23.0512   71.6163   -3.7778 O   0  0  0  0  0  0  0  0  0  0  0  0
   22.5576   73.8919   -4.2101 O   0  0  0  0  0  0  0  0  0  0  0  0
   21.3020   72.0809   -7.7046 O   0  0  0  0  0  0  0  0  0  0  0  0
   20.7339   70.8551   -5.1144 O   0  0  0  0  0  0  0  0  0  0  0  0
   23.7979   73.5704   -7.6482 O   0  0  0  0  0  0  0  0  0  0  0  0
   22.1142   72.2484   -6.5425 C   0  0  2  0  0  0  0  0  0  0  0  0
   21.2388   72.1736   -5.2913 C   0  0  2  0  0  0  0  0  0  0  0  0
   22.7953   73.6157   -6.6346 C   0  0  1  0  0  0  0  0  0  0  0  0
   22.0297   72.5752   -4.0455 C   0  0  1  0  0  0  0  0  0  0  0  0
   23.4547   73.9997   -5.3132 C   0  0  1  0  0  0  0  0  0  0  0  0
   20.8590   71.2186   -7.6681 H   0  0  0  0  0  0  0  0  0  0  0  0
   20.2311   70.5936   -5.9014 H   0  0  0  0  0  0  0  0  0  0  0  0
   23.3913   73.3268   -8.4945 H   0  0  0  0  0  0  0  0  0  0  0  0
   24.6600   75.7229   -4.2742 O   0  0  0  0  0  0  0  0  0  0  0  0
   23.4319   76.2755   -6.1142 O   0  0  0  0  0  0  0  0  0  0  0  0
   23.8235   75.4476   -5.3054 C   0  0  0  0  0  0  0  0  0  0  0  0
  1  4  1  0
  1 24  1  0
  1  2  1  1
  1  3  2  0
 25 28  1  0
 25 24  1  0
 25 26  1  6
 25 27  2  0
  6 11  1  0
  6 12  1  0
 29 36  1  0
 29 37  1  0
  9  7  1  1
  7 13  1  0
 10  8  1  6
  8 14  1  0
  4  5  1  0
 36 28  1  6
 33 30  1  6
 30 38  1  0
 34 31  1  1
 31 39  1  0
 35 32  1  6
 32 40  1  0
 41 43  1  0
 15 19  2  0
 42 43  2  0
 16 22  2  0
 12 17  1  1
 17 19  1  0
 17 20  1  0
 18 19  1  0
 18 22  1  0
 18 23  1  0
  9 10  1  0
  9 11  1  0
 10 12  1  0
 11  5  1  1
 33 34  1  0
 33 35  1  0
 34 36  1  0
 35 37  1  0
 37 43  1  6
 20 21  2  0
 21 22  1  0
M  CHG  3   2  -1  26  -1  41  -1
M  END
>  <COMPND>  (107) 
    udp_gluA.pdb 

>  <AUTHOR>  (107) 
    GENERATED BY OPEN BABEL 3.1.1

>  <MASTER>  (107) 
        0    0    0    0    0    0    0    0   56    0   56    0

>  <minimizedAffinity>  (107) 
-7.46250

>  <CNNscore>  (107) 
0.6409257650

>  <CNNaffinity>  (107) 
4.3011922836

>  <CNN_VS>  (107) 
2.7567448616

>  <CNNaffinity_variance>  (107) 
0.1141280904

$$$$
108
     RDKit          3D

 43 45  0  0  0  0  0  0  0  0999 V2000
   19.6870   71.1489   -1.8380 P   0  0  2  0  0  0  0  0  0  0  0  0
   19.1514   72.3105   -0.8467 O   0  0  0  0  0  0  0  0  0  0  0  0
   19.2788   69.7553   -1.4597 O   0  0  0  0  0  0  0  0  0  0  0  0
   21.2805   71.4154   -1.9236 O   0  0  0  0  0  0  0  0  0  0  0  0
   21.8332   72.4644   -1.1498 C   0  0  0  0  0  0  0  0  0  0  0  0
   23.9591   73.3026   -0.4046 O   0  0  0  0  0  0  0  0  0  0  0  0
   25.1844   71.4733   -2.4403 O   0  0  0  0  0  0  0  0  0  0  0  0
   25.5267   70.0912   -0.1146 O   0  0  0  0  0  0  0  0  0  0  0  0
   24.0305   71.2729   -1.6236 C   0  0  1  0  0  0  0  0  0  0  0  0
   24.4425   70.9927   -0.1939 C   0  0  2  0  0  0  0  0  0  0  0  0
   23.3106   72.6080   -1.4919 C   0  0  1  0  0  0  0  0  0  0  0  0
   24.7983   72.3811    0.3096 C   0  0  2  0  0  0  0  0  0  0  0  0
   25.6609   70.6337   -2.5389 H   0  0  0  0  0  0  0  0  0  0  0  0
   25.2496   69.2222   -0.4463 H   0  0  0  0  0  0  0  0  0  0  0  0
   26.4619   73.8481    2.0581 O   0  0  0  0  0  0  0  0  0  0  0  0
   23.7977   72.8857    5.6940 O   0  0  0  0  0  0  0  0  0  0  0  0
   24.5628   72.5303    1.7178 N   0  0  0  0  0  0  0  0  0  0  0  0
   25.1339   73.3665    3.8675 N   0  0  0  0  0  0  0  0  0  0  0  0
   25.4600   73.2881    2.5071 C   0  0  0  0  0  0  0  0  0  0  0  0
   23.4536   71.9318    2.3028 C   0  0  0  0  0  0  0  0  0  0  0  0
   23.1558   72.0155    3.6009 C   0  0  0  0  0  0  0  0  0  0  0  0
   24.0427   72.7882    4.4954 C   0  0  0  0  0  0  0  0  0  0  0  0
   25.7450   73.8871    4.4375 H   0  0  0  0  0  0  0  0  0  0  0  0
   19.1588   71.6356   -3.2861 O   0  0  0  0  0  0  0  0  0  0  0  0
   19.9175   72.4033   -4.4896 P   0  0  2  0  0  0  0  0  0  0  0  0
   21.4090   71.7756   -4.4465 O   0  0  0  0  0  0  0  0  0  0  0  0
   19.8736   73.9006   -4.3893 O   0  0  0  0  0  0  0  0  0  0  0  0
   19.2618   71.8029   -5.8358 O   0  0  0  0  0  0  0  0  0  0  0  0
   18.6943   69.5211   -5.5521 O   0  0  0  0  0  0  0  0  0  0  0  0
   17.8053   70.1187   -9.5421 O   0  0  0  0  0  0  0  0  0  0  0  0
   20.2363   71.2488   -8.3812 O   0  0  0  0  0  0  0  0  0  0  0  0
   15.6673   69.9597   -7.5787 O   0  0  0  0  0  0  0  0  0  0  0  0
   17.9437   70.4838   -8.1690 C   0  0  2  0  0  0  0  0  0  0  0  0
   19.3977   70.2986   -7.7342 C   0  0  2  0  0  0  0  0  0  0  0  0
   17.0226   69.5817   -7.3446 C   0  0  1  0  0  0  0  0  0  0  0  0
   19.5405   70.4578   -6.2200 C   0  0  1  0  0  0  0  0  0  0  0  0
   17.3124   69.7052   -5.8515 C   0  0  1  0  0  0  0  0  0  0  0  0
   18.3816   70.6789  -10.0855 H   0  0  0  0  0  0  0  0  0  0  0  0
   20.1505   71.1536   -9.3424 H   0  0  0  0  0  0  0  0  0  0  0  0
   15.4700   69.8857   -8.5255 H   0  0  0  0  0  0  0  0  0  0  0  0
   16.8428   68.7599   -3.7569 O   0  0  0  0  0  0  0  0  0  0  0  0
   16.0284   67.6790   -5.5919 O   0  0  0  0  0  0  0  0  0  0  0  0
   16.6542   68.6008   -5.0903 C   0  0  0  0  0  0  0  0  0  0  0  0
  1  4  1  0
  1 24  1  0
  1  2  1  1
  1  3  2  0
 25 28  1  0
 25 24  1  0
 25 26  1  6
 25 27  2  0
  6 11  1  0
  6 12  1  0
 29 36  1  0
 29 37  1  0
  9  7  1  6
  7 13  1  0
 10  8  1  6
  8 14  1  0
  4  5  1  0
 36 28  1  6
 33 30  1  6
 30 38  1  0
 34 31  1  6
 31 39  1  0
 35 32  1  1
 32 40  1  0
 41 43  1  0
 15 19  2  0
 42 43  2  0
 16 22  2  0
 12 17  1  1
 17 19  1  0
 17 20  1  0
 18 19  1  0
 18 22  1  0
 18 23  1  0
  9 10  1  0
  9 11  1  0
 10 12  1  0
 11  5  1  1
 33 34  1  0
 33 35  1  0
 34 36  1  0
 35 37  1  0
 37 43  1  1
 20 21  2  0
 21 22  1  0
M  CHG  3   2  -1  26  -1  41  -1
M  END
>  <COMPND>  (108) 
    udp_gluA.pdb 

>  <AUTHOR>  (108) 
    GENERATED BY OPEN BABEL 3.1.1

>  <MASTER>  (108) 
        0    0    0    0    0    0    0    0   56    0   56    0

>  <minimizedAffinity>  (108) 
-7.51352

>  <CNNscore>  (108) 
0.5679447651

>  <CNNaffinity>  (108) 
4.4239869118

>  <CNN_VS>  (108) 
2.5125801563

>  <CNNaffinity_variance>  (108) 
0.1967228949

$$$$
109
     RDKit          3D

 43 45  0  0  0  0  0  0  0  0999 V2000
   23.5518   72.0922   -3.1970 P   0  0  2  0  0  0  0  0  0  0  0  0
   23.9092   70.5167   -3.1019 O   0  0  0  0  0  0  0  0  0  0  0  0
   24.4960   72.9068   -4.0317 O   0  0  0  0  0  0  0  0  0  0  0  0
   23.4046   72.5511   -1.6525 O   0  0  0  0  0  0  0  0  0  0  0  0
   24.4161   72.1748   -0.7360 C   0  0  0  0  0  0  0  0  0  0  0  0
   24.7236   70.8952    1.2753 O   0  0  0  0  0  0  0  0  0  0  0  0
   21.9891   69.7774    0.7608 O   0  0  0  0  0  0  0  0  0  0  0  0
   21.5132   71.6577    2.6775 O   0  0  0  0  0  0  0  0  0  0  0  0
   22.4868   71.0941    0.5219 C   0  0  1  0  0  0  0  0  0  0  0  0
   22.6255   71.8470    1.8281 C   0  0  2  0  0  0  0  0  0  0  0  0
   23.9351   70.9738    0.0681 C   0  0  1  0  0  0  0  0  0  0  0  0
   23.9039   71.2565    2.3982 C   0  0  2  0  0  0  0  0  0  0  0  0
   21.0649   69.8285    1.0519 H   0  0  0  0  0  0  0  0  0  0  0  0
   20.7249   72.0511    2.2704 H   0  0  0  0  0  0  0  0  0  0  0  0
   23.2462   71.8594    5.0778 O   0  0  0  0  0  0  0  0  0  0  0  0
   26.7257   74.8593    5.4486 O   0  0  0  0  0  0  0  0  0  0  0  0
   24.6211   72.1913    3.2183 N   0  0  0  0  0  0  0  0  0  0  0  0
   24.9791   73.3537    5.2596 N   0  0  0  0  0  0  0  0  0  0  0  0
   24.2084   72.4219    4.5520 C   0  0  0  0  0  0  0  0  0  0  0  0
   25.7202   72.8665    2.7015 C   0  0  0  0  0  0  0  0  0  0  0  0
   26.4450   73.7518    3.3883 C   0  0  0  0  0  0  0  0  0  0  0  0
   26.0799   74.0508    4.7886 C   0  0  0  0  0  0  0  0  0  0  0  0
   24.7098   73.5324    6.1896 H   0  0  0  0  0  0  0  0  0  0  0  0
   22.0228   72.0864   -3.7216 O   0  0  0  0  0  0  0  0  0  0  0  0
   20.6388   71.7543   -2.9549 P   0  0  2  0  0  0  0  0  0  0  0  0
   20.3872   73.0771   -2.0564 O   0  0  0  0  0  0  0  0  0  0  0  0
   20.6594   70.4717   -2.1749 O   0  0  0  0  0  0  0  0  0  0  0  0
   19.5082   71.8212   -4.1037 O   0  0  0  0  0  0  0  0  0  0  0  0
   17.5499   70.6065   -4.6502 O   0  0  0  0  0  0  0  0  0  0  0  0
   19.2887   71.1131   -8.3634 O   0  0  0  0  0  0  0  0  0  0  0  0
   20.9245   70.4199   -6.0444 O   0  0  0  0  0  0  0  0  0  0  0  0
   16.9895   72.7187   -7.5975 O   0  0  0  0  0  0  0  0  0  0  0  0
   18.9627   71.4632   -7.0184 C   0  0  2  0  0  0  0  0  0  0  0  0
   19.5020   70.3953   -6.0665 C   0  0  2  0  0  0  0  0  0  0  0  0
   17.4389   71.5531   -6.9091 C   0  0  1  0  0  0  0  0  0  0  0  0
   18.9780   70.6133   -4.6463 C   0  0  1  0  0  0  0  0  0  0  0  0
   16.9890   71.6422   -5.4537 C   0  0  1  0  0  0  0  0  0  0  0  0
   20.2523   71.0501   -8.4569 H   0  0  0  0  0  0  0  0  0  0  0  0
   21.2638   70.2825   -6.9424 H   0  0  0  0  0  0  0  0  0  0  0  0
   17.2695   72.6746   -8.5251 H   0  0  0  0  0  0  0  0  0  0  0  0
   15.0062   70.9899   -6.5235 O   0  0  0  0  0  0  0  0  0  0  0  0
   14.8635   71.5436   -4.3162 O   0  0  0  0  0  0  0  0  0  0  0  0
   15.5195   71.3989   -5.3369 C   0  0  0  0  0  0  0  0  0  0  0  0
  1  4  1  0
  1 24  1  0
  1  2  1  1
  1  3  2  0
 25 28  1  0
 25 24  1  0
 25 26  1  1
 25 27  2  0
  6 11  1  0
  6 12  1  0
 29 36  1  0
 29 37  1  0
  9  7  1  1
  7 13  1  0
 10  8  1  1
  8 14  1  0
  4  5  1  0
 36 28  1  6
 33 30  1  6
 30 38  1  0
 34 31  1  1
 31 39  1  0
 35 32  1  6
 32 40  1  0
 41 43  1  0
 15 19  2  0
 42 43  2  0
 16 22  2  0
 12 17  1  1
 17 19  1  0
 17 20  1  0
 18 19  1  0
 18 22  1  0
 18 23  1  0
  9 10  1  0
  9 11  1  0
 10 12  1  0
 11  5  1  1
 33 34  1  0
 33 35  1  0
 34 36  1  0
 35 37  1  0
 37 43  1  6
 20 21  2  0
 21 22  1  0
M  CHG  3   2  -1  26  -1  41  -1
M  END
>  <COMPND>  (109) 
    udp_gluA.pdb 

>  <AUTHOR>  (109) 
    GENERATED BY OPEN BABEL 3.1.1

>  <MASTER>  (109) 
        0    0    0    0    0    0    0    0   56    0   56    0

>  <minimizedAffinity>  (109) 
-7.07557

>  <CNNscore>  (109) 
0.5205240250

>  <CNNaffinity>  (109) 
4.2921161652

>  <CNN_VS>  (109) 
2.2341496944

>  <CNNaffinity_variance>  (109) 
0.0056787683

$$$$
110
     RDKit          3D

 43 45  0  0  0  0  0  0  0  0999 V2000
   20.5259   70.5277   -1.4591 P   0  0  2  0  0  0  0  0  0  0  0  0
   20.7831   69.7142   -0.0840 O   0  0  0  0  0  0  0  0  0  0  0  0
   21.1677   69.9314   -2.6774 O   0  0  0  0  0  0  0  0  0  0  0  0
   20.9676   72.0428   -1.1026 O   0  0  0  0  0  0  0  0  0  0  0  0
   21.4981   72.3077    0.1831 C   0  0  0  0  0  0  0  0  0  0  0  0
   23.4609   73.4094    1.0265 O   0  0  0  0  0  0  0  0  0  0  0  0
   25.0185   71.1380   -0.1594 O   0  0  0  0  0  0  0  0  0  0  0  0
   24.9181   70.4757    2.4840 O   0  0  0  0  0  0  0  0  0  0  0  0
   23.7333   71.1250    0.4624 C   0  0  1  0  0  0  0  0  0  0  0  0
   23.8753   71.2727    1.9625 C   0  0  2  0  0  0  0  0  0  0  0  0
   23.0145   72.4123    0.0822 C   0  0  1  0  0  0  0  0  0  0  0  0
   24.1470   72.7602    2.1087 C   0  0  2  0  0  0  0  0  0  0  0  0
   25.4968   70.3252    0.0690 H   0  0  0  0  0  0  0  0  0  0  0  0
   24.6976   69.5378    2.3672 H   0  0  0  0  0  0  0  0  0  0  0  0
   25.7645   74.0295    4.0449 O   0  0  0  0  0  0  0  0  0  0  0  0
   22.1728   74.7405    6.8445 O   0  0  0  0  0  0  0  0  0  0  0  0
   23.6604   73.2864    3.3526 N   0  0  0  0  0  0  0  0  0  0  0  0
   23.9743   74.3815    5.4379 N   0  0  0  0  0  0  0  0  0  0  0  0
   24.5566   73.9053    4.2559 C   0  0  0  0  0  0  0  0  0  0  0  0
   22.3103   73.1886    3.6663 C   0  0  0  0  0  0  0  0  0  0  0  0
   21.7699   73.6474    4.7969 C   0  0  0  0  0  0  0  0  0  0  0  0
   22.6376   74.3069    5.7947 C   0  0  0  0  0  0  0  0  0  0  0  0
   24.5787   74.8145    6.0833 H   0  0  0  0  0  0  0  0  0  0  0  0
   18.9139   70.6255   -1.5267 O   0  0  0  0  0  0  0  0  0  0  0  0
   17.8549   69.9916   -2.5709 P   0  0  2  0  0  0  0  0  0  0  0  0
   16.4240   70.4609   -1.9773 O   0  0  0  0  0  0  0  0  0  0  0  0
   17.9895   68.5083   -2.7603 O   0  0  0  0  0  0  0  0  0  0  0  0
   18.0405   70.8582   -3.9189 O   0  0  0  0  0  0  0  0  0  0  0  0
   17.0465   70.0656   -5.9171 O   0  0  0  0  0  0  0  0  0  0  0  0
   19.6946   72.8902   -7.3584 O   0  0  0  0  0  0  0  0  0  0  0  0
   20.4914   71.0700   -5.2168 O   0  0  0  0  0  0  0  0  0  0  0  0
   16.8503   73.4803   -7.2452 O   0  0  0  0  0  0  0  0  0  0  0  0
   18.7890   72.3132   -6.4177 C   0  0  2  0  0  0  0  0  0  0  0  0
   19.3034   70.9388   -5.9888 C   0  0  2  0  0  0  0  0  0  0  0  0
   17.4230   72.1826   -7.0953 C   0  0  1  0  0  0  0  0  0  0  0  0
   18.2527   70.1945   -5.1636 C   0  0  1  0  0  0  0  0  0  0  0  0
   16.4714   71.3220   -6.2692 C   0  0  1  0  0  0  0  0  0  0  0  0
   20.5698   72.9829   -6.9500 H   0  0  0  0  0  0  0  0  0  0  0  0
   21.1623   71.5417   -5.7342 H   0  0  0  0  0  0  0  0  0  0  0  0
   17.4463   74.0382   -7.7691 H   0  0  0  0  0  0  0  0  0  0  0  0
   15.3175   69.6093   -7.3813 O   0  0  0  0  0  0  0  0  0  0  0  0
   14.3790   71.6871   -7.4136 O   0  0  0  0  0  0  0  0  0  0  0  0
   15.2760   70.9297   -7.0750 C   0  0  0  0  0  0  0  0  0  0  0  0
  1  4  1  0
  1 24  1  0
  1  2  1  1
  1  3  2  0
 25 28  1  0
 25 24  1  0
 25 26  1  1
 25 27  2  0
  6 11  1  0
  6 12  1  0
 29 36  1  0
 29 37  1  0
  9  7  1  6
  7 13  1  0
 10  8  1  6
  8 14  1  0
  4  5  1  0
 36 28  1  1
 33 30  1  6
 30 38  1  0
 34 31  1  1
 31 39  1  0
 35 32  1  1
 32 40  1  0
 41 43  1  0
 15 19  2  0
 42 43  2  0
 16 22  2  0
 12 17  1  1
 17 19  1  0
 17 20  1  0
 18 19  1  0
 18 22  1  0
 18 23  1  0
  9 10  1  0
  9 11  1  0
 10 12  1  0
 11  5  1  1
 33 34  1  0
 33 35  1  0
 34 36  1  0
 35 37  1  0
 37 43  1  6
 20 21  2  0
 21 22  1  0
M  CHG  3   2  -1  26  -1  41  -1
M  END
>  <COMPND>  (110) 
    udp_gluA.pdb 

>  <AUTHOR>  (110) 
    GENERATED BY OPEN BABEL 3.1.1

>  <MASTER>  (110) 
        0    0    0    0    0    0    0    0   56    0   56    0

>  <minimizedAffinity>  (110) 
-6.97625

>  <CNNscore>  (110) 
0.4858430028

>  <CNNaffinity>  (110) 
4.1966261864

>  <CNN_VS>  (110) 
2.0389015675

>  <CNNaffinity_variance>  (110) 
0.0563806817

$$$$
111
     RDKit          3D

 43 45  0  0  0  0  0  0  0  0999 V2000
   23.0850   72.0211   -3.4013 P   0  0  2  0  0  0  0  0  0  0  0  0
   24.0444   70.7414   -3.1544 O   0  0  0  0  0  0  0  0  0  0  0  0
   23.5482   72.9627   -4.4740 O   0  0  0  0  0  0  0  0  0  0  0  0
   22.9105   72.6659   -1.9277 O   0  0  0  0  0  0  0  0  0  0  0  0
   24.0311   72.6886   -1.0626 C   0  0  0  0  0  0  0  0  0  0  0  0
   25.1803   71.4568    0.6520 O   0  0  0  0  0  0  0  0  0  0  0  0
   22.5508   70.1219    1.1954 O   0  0  0  0  0  0  0  0  0  0  0  0
   22.7002   71.9774    3.1882 O   0  0  0  0  0  0  0  0  0  0  0  0
   22.8171   71.4714    0.8128 C   0  0  1  0  0  0  0  0  0  0  0  0
   23.3859   72.2455    1.9830 C   0  0  2  0  0  0  0  0  0  0  0  0
   23.9871   71.4613   -0.1615 C   0  0  1  0  0  0  0  0  0  0  0  0
   24.8262   71.7633    2.0099 C   0  0  2  0  0  0  0  0  0  0  0  0
   21.8067   70.1028    1.8181 H   0  0  0  0  0  0  0  0  0  0  0  0
   21.7885   72.3034    3.1209 H   0  0  0  0  0  0  0  0  0  0  0  0
   27.4734   71.2417    2.8448 O   0  0  0  0  0  0  0  0  0  0  0  0
   28.1972   75.6630    3.9272 O   0  0  0  0  0  0  0  0  0  0  0  0
   25.7284   72.7596    2.5142 N   0  0  0  0  0  0  0  0  0  0  0  0
   27.8310   73.4441    3.3841 N   0  0  0  0  0  0  0  0  0  0  0  0
   27.0373   72.3927    2.9068 C   0  0  0  0  0  0  0  0  0  0  0  0
   25.3151   74.0826    2.6141 C   0  0  0  0  0  0  0  0  0  0  0  0
   26.0831   75.0737    3.0709 C   0  0  0  0  0  0  0  0  0  0  0  0
   27.4643   74.7749    3.5026 C   0  0  0  0  0  0  0  0  0  0  0  0
   28.7457   73.2128    3.6654 H   0  0  0  0  0  0  0  0  0  0  0  0
   21.6423   71.3455   -3.6754 O   0  0  0  0  0  0  0  0  0  0  0  0
   20.4807   70.8726   -2.6553 P   0  0  2  0  0  0  0  0  0  0  0  0
   19.8789   72.2713   -2.1061 O   0  0  0  0  0  0  0  0  0  0  0  0
   20.9495   69.9362   -1.5796 O   0  0  0  0  0  0  0  0  0  0  0  0
   19.3210   70.2751   -3.6043 O   0  0  0  0  0  0  0  0  0  0  0  0
   18.0202   70.9376   -5.4693 O   0  0  0  0  0  0  0  0  0  0  0  0
   15.1374   69.4139   -2.9323 O   0  0  0  0  0  0  0  0  0  0  0  0
   17.2889   71.0933   -1.8905 O   0  0  0  0  0  0  0  0  0  0  0  0
   16.0155   67.8734   -5.2360 O   0  0  0  0  0  0  0  0  0  0  0  0
   16.4340   69.5135   -3.5213 C   0  0  2  0  0  0  0  0  0  0  0  0
   17.0032   70.9105   -3.2724 C   0  0  2  0  0  0  0  0  0  0  0  0
   16.2922   69.2564   -5.0232 C   0  0  1  0  0  0  0  0  0  0  0  0
   18.2836   71.1313   -4.0791 C   0  0  1  0  0  0  0  0  0  0  0  0
   17.5703   69.6192   -5.7737 C   0  0  1  0  0  0  0  0  0  0  0  0
   15.2027   69.5737   -1.9776 H   0  0  0  0  0  0  0  0  0  0  0  0
   16.4808   70.9544   -1.3727 H   0  0  0  0  0  0  0  0  0  0  0  0
   15.2044   67.6295   -4.7634 H   0  0  0  0  0  0  0  0  0  0  0  0
   15.9953   69.5879   -7.5115 O   0  0  0  0  0  0  0  0  0  0  0  0
   18.1882   69.8014   -8.0989 O   0  0  0  0  0  0  0  0  0  0  0  0
   17.3218   69.6811   -7.2457 C   0  0  0  0  0  0  0  0  0  0  0  0
  1  4  1  0
  1 24  1  0
  1  2  1  1
  1  3  2  0
 25 28  1  0
 25 24  1  0
 25 26  1  1
 25 27  2  0
  6 11  1  0
  6 12  1  0
 29 36  1  0
 29 37  1  0
  9  7  1  1
  7 13  1  0
 10  8  1  1
  8 14  1  0
  4  5  1  0
 36 28  1  1
 33 30  1  1
 30 38  1  0
 34 31  1  1
 31 39  1  0
 35 32  1  1
 32 40  1  0
 41 43  1  0
 15 19  2  0
 42 43  2  0
 16 22  2  0
 12 17  1  6
 17 19  1  0
 17 20  1  0
 18 19  1  0
 18 22  1  0
 18 23  1  0
  9 10  1  0
  9 11  1  0
 10 12  1  0
 11  5  1  6
 33 34  1  0
 33 35  1  0
 34 36  1  0
 35 37  1  0
 37 43  1  6
 20 21  2  0
 21 22  1  0
M  CHG  3   2  -1  26  -1  41  -1
M  END
>  <COMPND>  (111) 
    udp_gluA.pdb 

>  <AUTHOR>  (111) 
    GENERATED BY OPEN BABEL 3.1.1

>  <MASTER>  (111) 
        0    0    0    0    0    0    0    0   56    0   56    0

>  <minimizedAffinity>  (111) 
-7.11856

>  <CNNscore>  (111) 
0.4687741399

>  <CNNaffinity>  (111) 
4.2306241989

>  <CNN_VS>  (111) 
1.9832072258

>  <CNNaffinity_variance>  (111) 
0.0558479317

$$$$
112
     RDKit          3D

 43 45  0  0  0  0  0  0  0  0999 V2000
   19.2677   74.2225   -5.5699 P   0  0  2  0  0  0  0  0  0  0  0  0
   18.2588   75.0171   -4.5853 O   0  0  0  0  0  0  0  0  0  0  0  0
   20.3851   75.0501   -6.1341 O   0  0  0  0  0  0  0  0  0  0  0  0
   18.2872   73.5319   -6.6559 O   0  0  0  0  0  0  0  0  0  0  0  0
   17.0133   74.1080   -6.8794 C   0  0  0  0  0  0  0  0  0  0  0  0
   16.5444   71.7510   -6.9305 O   0  0  0  0  0  0  0  0  0  0  0  0
   13.7654   72.5109   -7.7618 O   0  0  0  0  0  0  0  0  0  0  0  0
   13.4641   71.9606   -5.1081 O   0  0  0  0  0  0  0  0  0  0  0  0
   14.6488   73.1694   -6.8538 C   0  0  1  0  0  0  0  0  0  0  0  0
   14.7305   72.4009   -5.5518 C   0  0  2  0  0  0  0  0  0  0  0  0
   16.0657   73.0322   -7.3941 C   0  0  1  0  0  0  0  0  0  0  0  0
   15.6526   71.2515   -5.9213 C   0  0  2  0  0  0  0  0  0  0  0  0
   12.8538   72.5852   -7.4376 H   0  0  0  0  0  0  0  0  0  0  0  0
   12.9146   72.7290   -4.8850 H   0  0  0  0  0  0  0  0  0  0  0  0
   16.6408   68.6199   -5.6480 O   0  0  0  0  0  0  0  0  0  0  0  0
   18.6045   69.5835   -1.5910 O   0  0  0  0  0  0  0  0  0  0  0  0
   16.4251   70.7877   -4.8037 N   0  0  0  0  0  0  0  0  0  0  0  0
   17.6170   69.1021   -3.6272 N   0  0  0  0  0  0  0  0  0  0  0  0
   16.8732   69.4461   -4.7635 C   0  0  0  0  0  0  0  0  0  0  0  0
   16.7327   71.6573   -3.7645 C   0  0  0  0  0  0  0  0  0  0  0  0
   17.4428   71.3148   -2.6879 C   0  0  0  0  0  0  0  0  0  0  0  0
   17.9479   69.9314   -2.5678 C   0  0  0  0  0  0  0  0  0  0  0  0
   17.9381   68.1728   -3.5757 H   0  0  0  0  0  0  0  0  0  0  0  0
   19.7469   72.9713   -4.6655 O   0  0  0  0  0  0  0  0  0  0  0  0
   20.6122   71.6588   -5.0427 P   0  0  2  0  0  0  0  0  0  0  0  0
   21.7040   72.2255   -6.0949 O   0  0  0  0  0  0  0  0  0  0  0  0
   19.7951   70.5096   -5.5580 O   0  0  0  0  0  0  0  0  0  0  0  0
   21.4618   71.3322   -3.7108 O   0  0  0  0  0  0  0  0  0  0  0  0
   21.3810   71.4470   -1.3466 O   0  0  0  0  0  0  0  0  0  0  0  0
   24.8102   73.5966   -2.1759 O   0  0  0  0  0  0  0  0  0  0  0  0
   22.4133   73.9438   -3.8096 O   0  0  0  0  0  0  0  0  0  0  0  0
   25.0013   70.8889   -1.1355 O   0  0  0  0  0  0  0  0  0  0  0  0
   23.8257   72.5834   -2.3812 C   0  0  2  0  0  0  0  0  0  0  0  0
   22.4558   73.2332   -2.5776 C   0  0  2  0  0  0  0  0  0  0  0  0
   23.8137   71.6788   -1.1469 C   0  0  1  0  0  0  0  0  0  0  0  0
   21.3454   72.1816   -2.5707 C   0  0  1  0  0  0  0  0  0  0  0  0
   22.6068   70.7449   -1.1524 C   0  0  1  0  0  0  0  0  0  0  0  0
   24.8359   74.1839   -2.9478 H   0  0  0  0  0  0  0  0  0  0  0  0
   23.1154   74.6126   -3.8209 H   0  0  0  0  0  0  0  0  0  0  0  0
   25.7769   71.4713   -1.1321 H   0  0  0  0  0  0  0  0  0  0  0  0
   23.4411   70.4391    1.0183 O   0  0  0  0  0  0  0  0  0  0  0  0
   21.4819   69.3940    0.5002 O   0  0  0  0  0  0  0  0  0  0  0  0
   22.4212   70.1101    0.1873 C   0  0  0  0  0  0  0  0  0  0  0  0
  1  4  1  0
  1 24  1  0
  1  2  1  1
  1  3  2  0
 25 28  1  0
 25 24  1  0
 25 26  1  6
 25 27  2  0
  6 11  1  0
  6 12  1  0
 29 36  1  0
 29 37  1  0
  9  7  1  6
  7 13  1  0
 10  8  1  6
  8 14  1  0
  4  5  1  0
 36 28  1  6
 33 30  1  1
 30 38  1  0
 34 31  1  6
 31 39  1  0
 35 32  1  6
 32 40  1  0
 41 43  1  0
 15 19  2  0
 42 43  2  0
 16 22  2  0
 12 17  1  1
 17 19  1  0
 17 20  1  0
 18 19  1  0
 18 22  1  0
 18 23  1  0
  9 10  1  0
  9 11  1  0
 10 12  1  0
 11  5  1  1
 33 34  1  0
 33 35  1  0
 34 36  1  0
 35 37  1  0
 37 43  1  1
 20 21  2  0
 21 22  1  0
M  CHG  3   2  -1  26  -1  41  -1
M  END
>  <COMPND>  (112) 
    udp_gluA.pdb 

>  <AUTHOR>  (112) 
    GENERATED BY OPEN BABEL 3.1.1

>  <MASTER>  (112) 
        0    0    0    0    0    0    0    0   56    0   56    0

>  <minimizedAffinity>  (112) 
-6.37176

>  <CNNscore>  (112) 
0.4631298780

>  <CNNaffinity>  (112) 
4.2822580338

>  <CNN_VS>  (112) 
1.9832416773

>  <CNNaffinity_variance>  (112) 
0.0764744207

$$$$
113
     RDKit          3D

 43 45  0  0  0  0  0  0  0  0999 V2000
   17.3686   69.7216   -2.8131 P   0  0  2  0  0  0  0  0  0  0  0  0
   17.3342   68.5962   -1.6508 O   0  0  0  0  0  0  0  0  0  0  0  0
   16.3608   70.8227   -2.6589 O   0  0  0  0  0  0  0  0  0  0  0  0
   17.2719   68.8675   -4.1839 O   0  0  0  0  0  0  0  0  0  0  0  0
   16.0854   68.9533   -4.9516 C   0  0  0  0  0  0  0  0  0  0  0  0
   15.3167   70.0436   -6.9512 O   0  0  0  0  0  0  0  0  0  0  0  0
   18.2017   70.1952   -7.7547 O   0  0  0  0  0  0  0  0  0  0  0  0
   17.7045   72.7158   -6.8406 O   0  0  0  0  0  0  0  0  0  0  0  0
   17.6174   70.3162   -6.4576 C   0  0  1  0  0  0  0  0  0  0  0  0
   16.9303   71.6578   -6.3154 C   0  0  2  0  0  0  0  0  0  0  0  0
   16.4451   69.3479   -6.3783 C   0  0  1  0  0  0  0  0  0  0  0  0
   15.6419   71.4359   -7.0891 C   0  0  2  0  0  0  0  0  0  0  0  0
   18.9532   70.8046   -7.8293 H   0  0  0  0  0  0  0  0  0  0  0  0
   18.5133   72.8170   -6.3138 H   0  0  0  0  0  0  0  0  0  0  0  0
   13.9219   73.0051   -8.6877 O   0  0  0  0  0  0  0  0  0  0  0  0
   11.5023   74.4114   -5.0255 O   0  0  0  0  0  0  0  0  0  0  0  0
   14.5542   72.2221   -6.5793 N   0  0  0  0  0  0  0  0  0  0  0  0
   12.7191   73.7048   -6.8621 N   0  0  0  0  0  0  0  0  0  0  0  0
   13.7503   72.9748   -7.4677 C   0  0  0  0  0  0  0  0  0  0  0  0
   14.2919   72.2409   -5.2148 C   0  0  0  0  0  0  0  0  0  0  0  0
   13.3052   72.9415   -4.6524 C   0  0  0  0  0  0  0  0  0  0  0  0
   12.4195   73.7557   -5.5103 C   0  0  0  0  0  0  0  0  0  0  0  0
   12.1472   74.2384   -7.4601 H   0  0  0  0  0  0  0  0  0  0  0  0
   18.9089   70.2117   -2.7982 O   0  0  0  0  0  0  0  0  0  0  0  0
   19.7594   71.0053   -1.6755 P   0  0  2  0  0  0  0  0  0  0  0  0
   20.3388   69.8169   -0.7416 O   0  0  0  0  0  0  0  0  0  0  0  0
   18.9762   72.0491   -0.9332 O   0  0  0  0  0  0  0  0  0  0  0  0
   21.0494   71.5702   -2.4627 O   0  0  0  0  0  0  0  0  0  0  0  0
   21.3870   70.7845   -4.6713 O   0  0  0  0  0  0  0  0  0  0  0  0
   25.0205   72.5707   -3.8498 O   0  0  0  0  0  0  0  0  0  0  0  0
   23.6830   70.9376   -1.8303 O   0  0  0  0  0  0  0  0  0  0  0  0
   23.1001   73.8987   -5.5817 O   0  0  0  0  0  0  0  0  0  0  0  0
   23.6060   72.3961   -3.7675 C   0  0  2  0  0  0  0  0  0  0  0  0
   23.2935   71.0126   -3.1968 C   0  0  2  0  0  0  0  0  0  0  0  0
   23.0298   72.5323   -5.1787 C   0  0  1  0  0  0  0  0  0  0  0  0
   21.8006   70.6998   -3.3070 C   0  0  1  0  0  0  0  0  0  0  0  0
   21.5726   72.0826   -5.2312 C   0  0  1  0  0  0  0  0  0  0  0  0
   25.4087   72.4883   -2.9645 H   0  0  0  0  0  0  0  0  0  0  0  0
   24.6292   71.1353   -1.7529 H   0  0  0  0  0  0  0  0  0  0  0  0
   24.0225   74.1974   -5.5525 H   0  0  0  0  0  0  0  0  0  0  0  0
   20.6604   73.0761   -7.1501 O   0  0  0  0  0  0  0  0  0  0  0  0
   21.1644   70.8555   -7.2681 O   0  0  0  0  0  0  0  0  0  0  0  0
   21.1227   71.9057   -6.6449 C   0  0  0  0  0  0  0  0  0  0  0  0
  1  4  1  0
  1 24  1  0
  1  2  1  1
  1  3  2  0
 25 28  1  0
 25 24  1  0
 25 26  1  1
 25 27  2  0
  6 11  1  0
  6 12  1  0
 29 36  1  0
 29 37  1  0
  9  7  1  6
  7 13  1  0
 10  8  1  6
  8 14  1  0
  4  5  1  0
 36 28  1  1
 33 30  1  6
 30 38  1  0
 34 31  1  1
 31 39  1  0
 35 32  1  1
 32 40  1  0
 41 43  1  0
 15 19  2  0
 42 43  2  0
 16 22  2  0
 12 17  1  1
 17 19  1  0
 17 20  1  0
 18 19  1  0
 18 22  1  0
 18 23  1  0
  9 10  1  0
  9 11  1  0
 10 12  1  0
 11  5  1  1
 33 34  1  0
 33 35  1  0
 34 36  1  0
 35 37  1  0
 37 43  1  6
 20 21  2  0
 21 22  1  0
M  CHG  3   2  -1  26  -1  41  -1
M  END
>  <COMPND>  (113) 
    udp_gluA.pdb 

>  <AUTHOR>  (113) 
    GENERATED BY OPEN BABEL 3.1.1

>  <MASTER>  (113) 
        0    0    0    0    0    0    0    0   56    0   56    0

>  <minimizedAffinity>  (113) 
-7.27620

>  <CNNscore>  (113) 
0.4608525336

>  <CNNaffinity>  (113) 
4.3562970161

>  <CNN_VS>  (113) 
2.0076105595

>  <CNNaffinity_variance>  (113) 
0.0426538624

$$$$
114
     RDKit          3D

 43 45  0  0  0  0  0  0  0  0999 V2000
   20.6570   70.9137   -2.6349 P   0  0  2  0  0  0  0  0  0  0  0  0
   21.9720   70.1938   -3.2444 O   0  0  0  0  0  0  0  0  0  0  0  0
   20.2038   72.1374   -3.3758 O   0  0  0  0  0  0  0  0  0  0  0  0
   21.0223   71.1326   -1.0739 O   0  0  0  0  0  0  0  0  0  0  0  0
   22.0272   70.3209   -0.4944 C   0  0  0  0  0  0  0  0  0  0  0  0
   22.9620   72.3755    0.3316 O   0  0  0  0  0  0  0  0  0  0  0  0
   25.6257   71.0063    0.1832 O   0  0  0  0  0  0  0  0  0  0  0  0
   25.0215   70.8480    2.8376 O   0  0  0  0  0  0  0  0  0  0  0  0
   24.3505   70.4668    0.5318 C   0  0  1  0  0  0  0  0  0  0  0  0
   23.9508   70.9214    1.9196 C   0  0  2  0  0  0  0  0  0  0  0  0
   23.3005   71.1424   -0.3395 C   0  0  1  0  0  0  0  0  0  0  0  0
   23.4953   72.3481    1.6651 C   0  0  2  0  0  0  0  0  0  0  0  0
   26.3130   70.5897    0.7270 H   0  0  0  0  0  0  0  0  0  0  0  0
   25.2744   69.9198    2.9659 H   0  0  0  0  0  0  0  0  0  0  0  0
   23.9600   72.9926    4.3754 O   0  0  0  0  0  0  0  0  0  0  0  0
   19.5110   73.9558    5.0986 O   0  0  0  0  0  0  0  0  0  0  0  0
   22.4765   72.7703    2.5842 N   0  0  0  0  0  0  0  0  0  0  0  0
   21.7435   73.4707    4.7332 N   0  0  0  0  0  0  0  0  0  0  0  0
   22.8154   73.0700    3.9249 C   0  0  0  0  0  0  0  0  0  0  0  0
   21.1598   72.8853    2.1551 C   0  0  0  0  0  0  0  0  0  0  0  0
   20.1489   73.2687    2.9373 C   0  0  0  0  0  0  0  0  0  0  0  0
   20.4177   73.5994    4.3521 C   0  0  0  0  0  0  0  0  0  0  0  0
   21.9545   73.6827    5.6712 H   0  0  0  0  0  0  0  0  0  0  0  0
   19.5745   69.7142   -2.5900 O   0  0  0  0  0  0  0  0  0  0  0  0
   17.9582   69.7419   -2.6082 P   0  0  2  0  0  0  0  0  0  0  0  0
   17.6083   71.2410   -2.1077 O   0  0  0  0  0  0  0  0  0  0  0  0
   17.3145   68.6536   -1.7987 O   0  0  0  0  0  0  0  0  0  0  0  0
   17.5663   69.7332   -4.1731 O   0  0  0  0  0  0  0  0  0  0  0  0
   18.3669   71.3515   -5.7059 O   0  0  0  0  0  0  0  0  0  0  0  0
   14.9971   69.9528   -7.6439 O   0  0  0  0  0  0  0  0  0  0  0  0
   14.9479   70.4594   -4.7672 O   0  0  0  0  0  0  0  0  0  0  0  0
   17.6392   69.1248   -8.5298 O   0  0  0  0  0  0  0  0  0  0  0  0
   16.1416   69.8680   -6.7948 C   0  0  2  0  0  0  0  0  0  0  0  0
   15.9972   70.8603   -5.6407 C   0  0  2  0  0  0  0  0  0  0  0  0
   17.3778   70.2025   -7.6327 C   0  0  1  0  0  0  0  0  0  0  0  0
   17.2975   70.9639   -4.8424 C   0  0  1  0  0  0  0  0  0  0  0  0
   18.6066   70.4138   -6.7530 C   0  0  1  0  0  0  0  0  0  0  0  0
   14.1991   69.7442   -7.1329 H   0  0  0  0  0  0  0  0  0  0  0  0
   14.1198   70.3913   -5.2672 H   0  0  0  0  0  0  0  0  0  0  0  0
   16.8647   68.9798   -9.0954 H   0  0  0  0  0  0  0  0  0  0  0  0
   19.9804   72.2919   -7.0478 O   0  0  0  0  0  0  0  0  0  0  0  0
   20.2984   70.5372   -8.4687 O   0  0  0  0  0  0  0  0  0  0  0  0
   19.7113   71.0532   -7.5295 C   0  0  0  0  0  0  0  0  0  0  0  0
  1  4  1  0
  1 24  1  0
  1  2  1  6
  1  3  2  0
 25 28  1  0
 25 24  1  0
 25 26  1  1
 25 27  2  0
  6 11  1  0
  6 12  1  0
 29 36  1  0
 29 37  1  0
  9  7  1  6
  7 13  1  0
 10  8  1  1
  8 14  1  0
  4  5  1  0
 36 28  1  6
 33 30  1  6
 30 38  1  0
 34 31  1  1
 31 39  1  0
 35 32  1  6
 32 40  1  0
 41 43  1  0
 15 19  2  0
 42 43  2  0
 16 22  2  0
 12 17  1  1
 17 19  1  0
 17 20  1  0
 18 19  1  0
 18 22  1  0
 18 23  1  0
  9 10  1  0
  9 11  1  0
 10 12  1  0
 11  5  1  1
 33 34  1  0
 33 35  1  0
 34 36  1  0
 35 37  1  0
 37 43  1  6
 20 21  2  0
 21 22  1  0
M  CHG  3   2  -1  26  -1  41  -1
M  END
>  <COMPND>  (114) 
    udp_gluA.pdb 

>  <AUTHOR>  (114) 
    GENERATED BY OPEN BABEL 3.1.1

>  <MASTER>  (114) 
        0    0    0    0    0    0    0    0   56    0   56    0

>  <minimizedAffinity>  (114) 
-7.07221

>  <CNNscore>  (114) 
0.4458694160

>  <CNNaffinity>  (114) 
4.2500486374

>  <CNN_VS>  (114) 
1.8949667215

>  <CNNaffinity_variance>  (114) 
0.0774105340

$$$$
115
     RDKit          3D

 43 45  0  0  0  0  0  0  0  0999 V2000
   21.6354   70.5163   -0.5476 P   0  0  2  0  0  0  0  0  0  0  0  0
   22.0091   69.4903    0.6468 O   0  0  0  0  0  0  0  0  0  0  0  0
   21.2226   71.8875   -0.0990 O   0  0  0  0  0  0  0  0  0  0  0  0
   20.5453   69.7072   -1.4279 O   0  0  0  0  0  0  0  0  0  0  0  0
   20.0932   70.2829   -2.6398 C   0  0  0  0  0  0  0  0  0  0  0  0
   18.3386   71.5959   -3.6273 O   0  0  0  0  0  0  0  0  0  0  0  0
   16.6608   70.7800   -1.2797 O   0  0  0  0  0  0  0  0  0  0  0  0
   15.7797   69.1131   -3.2498 O   0  0  0  0  0  0  0  0  0  0  0  0
   17.6464   70.0301   -1.9901 C   0  0  1  0  0  0  0  0  0  0  0  0
   17.1047   69.5944   -3.3351 C   0  0  2  0  0  0  0  0  0  0  0  0
   18.7639   70.9837   -2.3905 C   0  0  1  0  0  0  0  0  0  0  0  0
   17.2110   70.8738   -4.1474 C   0  0  2  0  0  0  0  0  0  0  0  0
   15.9364   70.1918   -1.0134 H   0  0  0  0  0  0  0  0  0  0  0  0
   15.7652   68.2978   -2.7233 H   0  0  0  0  0  0  0  0  0  0  0  0
   16.5634   72.6865   -6.2141 O   0  0  0  0  0  0  0  0  0  0  0  0
   18.0687   69.7939   -9.4715 O   0  0  0  0  0  0  0  0  0  0  0  0
   17.4231   70.6199   -5.5443 N   0  0  0  0  0  0  0  0  0  0  0  0
   17.3128   71.2437   -7.8345 N   0  0  0  0  0  0  0  0  0  0  0  0
   17.0626   71.5971   -6.5020 C   0  0  0  0  0  0  0  0  0  0  0  0
   17.9836   69.4159   -5.9532 C   0  0  0  0  0  0  0  0  0  0  0  0
   18.2162   69.0934   -7.2270 C   0  0  0  0  0  0  0  0  0  0  0  0
   17.8675   70.0586   -8.2901 C   0  0  0  0  0  0  0  0  0  0  0  0
   17.0682   71.9072   -8.5195 H   0  0  0  0  0  0  0  0  0  0  0  0
   22.9544   70.4820   -1.4814 O   0  0  0  0  0  0  0  0  0  0  0  0
   23.7914   71.6755   -2.1804 P   0  0  2  0  0  0  0  0  0  0  0  0
   25.0099   70.8963   -2.9073 O   0  0  0  0  0  0  0  0  0  0  0  0
   24.2260   72.7582   -1.2355 O   0  0  0  0  0  0  0  0  0  0  0  0
   22.8515   72.1805   -3.3904 O   0  0  0  0  0  0  0  0  0  0  0  0
   23.0140   72.0404   -5.7490 O   0  0  0  0  0  0  0  0  0  0  0  0
   21.4038   75.8107   -5.2398 O   0  0  0  0  0  0  0  0  0  0  0  0
   23.5517   74.8701   -3.4973 O   0  0  0  0  0  0  0  0  0  0  0  0
   19.7212   73.6135   -6.1297 O   0  0  0  0  0  0  0  0  0  0  0  0
   21.6352   74.4386   -4.9210 C   0  0  2  0  0  0  0  0  0  0  0  0
   23.1289   74.2126   -4.6863 C   0  0  2  0  0  0  0  0  0  0  0  0
   21.1470   73.5908   -6.0978 C   0  0  1  0  0  0  0  0  0  0  0  0
   23.4449   72.7208   -4.5696 C   0  0  1  0  0  0  0  0  0  0  0  0
   21.6091   72.1421   -5.9703 C   0  0  1  0  0  0  0  0  0  0  0  0
   21.7063   76.3688   -4.5061 H   0  0  0  0  0  0  0  0  0  0  0  0
   23.3540   75.8171   -3.5643 H   0  0  0  0  0  0  0  0  0  0  0  0
   19.4141   74.5300   -6.2105 H   0  0  0  0  0  0  0  0  0  0  0  0
   21.1397   72.2744   -8.2646 O   0  0  0  0  0  0  0  0  0  0  0  0
   21.5028   70.1980   -7.3952 O   0  0  0  0  0  0  0  0  0  0  0  0
   21.4185   71.4092   -7.2582 C   0  0  0  0  0  0  0  0  0  0  0  0
  1  4  1  0
  1 24  1  0
  1  2  1  1
  1  3  2  0
 25 28  1  0
 25 24  1  0
 25 26  1  6
 25 27  2  0
  6 11  1  0
  6 12  1  0
 29 36  1  0
 29 37  1  0
  9  7  1  1
  7 13  1  0
 10  8  1  1
  8 14  1  0
  4  5  1  0
 36 28  1  1
 33 30  1  6
 30 38  1  0
 34 31  1  1
 31 39  1  0
 35 32  1  1
 32 40  1  0
 41 43  1  0
 15 19  2  0
 42 43  2  0
 16 22  2  0
 12 17  1  6
 17 19  1  0
 17 20  1  0
 18 19  1  0
 18 22  1  0
 18 23  1  0
  9 10  1  0
  9 11  1  0
 10 12  1  0
 11  5  1  6
 33 34  1  0
 33 35  1  0
 34 36  1  0
 35 37  1  0
 37 43  1  6
 20 21  2  0
 21 22  1  0
M  CHG  3   2  -1  26  -1  41  -1
M  END
>  <COMPND>  (115) 
    udp_gluA.pdb 

>  <AUTHOR>  (115) 
    GENERATED BY OPEN BABEL 3.1.1

>  <MASTER>  (115) 
        0    0    0    0    0    0    0    0   56    0   56    0

>  <minimizedAffinity>  (115) 
-7.57644

>  <CNNscore>  (115) 
0.4412733316

>  <CNNaffinity>  (115) 
4.0855646133

>  <CNN_VS>  (115) 
1.8028507233

>  <CNNaffinity_variance>  (115) 
0.7448045015

$$$$
116
     RDKit          3D

 43 45  0  0  0  0  0  0  0  0999 V2000
   21.0584   70.6714   -1.4905 P   0  0  2  0  0  0  0  0  0  0  0  0
   22.5239   70.5891   -0.8089 O   0  0  0  0  0  0  0  0  0  0  0  0
   20.0380   69.7344   -0.9140 O   0  0  0  0  0  0  0  0  0  0  0  0
   21.3553   70.5004   -3.0718 O   0  0  0  0  0  0  0  0  0  0  0  0
   20.6736   71.3430   -3.9827 C   0  0  0  0  0  0  0  0  0  0  0  0
   19.9569   70.4510   -6.0966 O   0  0  0  0  0  0  0  0  0  0  0  0
   22.4075   71.7314   -7.2570 O   0  0  0  0  0  0  0  0  0  0  0  0
   20.4361   73.4854   -7.9451 O   0  0  0  0  0  0  0  0  0  0  0  0
   21.5534   72.1970   -6.2119 C   0  0  1  0  0  0  0  0  0  0  0  0
   20.2461   72.6987   -6.7877 C   0  0  2  0  0  0  0  0  0  0  0  0
   21.1021   70.9898   -5.4012 C   0  0  1  0  0  0  0  0  0  0  0  0
   19.5103   71.4014   -7.0767 C   0  0  2  0  0  0  0  0  0  0  0  0
   22.7087   72.4852   -7.7888 H   0  0  0  0  0  0  0  0  0  0  0  0
   20.9083   74.2997   -7.7086 H   0  0  0  0  0  0  0  0  0  0  0  0
   17.6413   69.5896   -8.1724 O   0  0  0  0  0  0  0  0  0  0  0  0
   14.0684   72.0512   -6.6172 O   0  0  0  0  0  0  0  0  0  0  0  0
   18.0857   71.5446   -6.9729 N   0  0  0  0  0  0  0  0  0  0  0  0
   15.8636   70.8179   -7.3977 N   0  0  0  0  0  0  0  0  0  0  0  0
   17.2345   70.5782   -7.5592 C   0  0  0  0  0  0  0  0  0  0  0  0
   17.5453   72.6310   -6.2956 C   0  0  0  0  0  0  0  0  0  0  0  0
   16.2364   72.8459   -6.1498 C   0  0  0  0  0  0  0  0  0  0  0  0
   15.2787   71.8838   -6.7333 C   0  0  0  0  0  0  0  0  0  0  0  0
   15.2512   70.1597   -7.7990 H   0  0  0  0  0  0  0  0  0  0  0  0
   20.6843   72.2384   -1.3584 O   0  0  0  0  0  0  0  0  0  0  0  0
   19.5683   72.9914   -0.4634 P   0  0  2  0  0  0  0  0  0  0  0  0
   19.6355   74.5185   -0.9962 O   0  0  0  0  0  0  0  0  0  0  0  0
   19.7647   72.8441    1.0177 O   0  0  0  0  0  0  0  0  0  0  0  0
   18.1581   72.4309   -1.0108 O   0  0  0  0  0  0  0  0  0  0  0  0
   17.6378   71.5295   -3.1382 O   0  0  0  0  0  0  0  0  0  0  0  0
   14.0422   73.2497   -2.0517 O   0  0  0  0  0  0  0  0  0  0  0  0
   16.5610   74.6427   -1.5522 O   0  0  0  0  0  0  0  0  0  0  0  0
   14.3802   70.3656   -1.9153 O   0  0  0  0  0  0  0  0  0  0  0  0
   15.2917   72.5944   -1.8343 C   0  0  2  0  0  0  0  0  0  0  0  0
   16.4285   73.4747   -2.3541 C   0  0  2  0  0  0  0  0  0  0  0  0
   15.2640   71.2618   -2.5862 C   0  0  1  0  0  0  0  0  0  0  0  0
   17.7553   72.7143   -2.3495 C   0  0  1  0  0  0  0  0  0  0  0  0
   16.6502   70.6267   -2.6455 C   0  0  1  0  0  0  0  0  0  0  0  0
   14.0366   74.0993   -1.5832 H   0  0  0  0  0  0  0  0  0  0  0  0
   15.7226   75.1300   -1.5504 H   0  0  0  0  0  0  0  0  0  0  0  0
   13.4943   70.7580   -1.8706 H   0  0  0  0  0  0  0  0  0  0  0  0
   17.7598   68.7185   -3.4387 O   0  0  0  0  0  0  0  0  0  0  0  0
   15.8555   69.3421   -4.5269 O   0  0  0  0  0  0  0  0  0  0  0  0
   16.6826   69.5162   -3.6446 C   0  0  0  0  0  0  0  0  0  0  0  0
  1  4  1  0
  1 24  1  0
  1  2  1  1
  1  3  2  0
 25 28  1  0
 25 24  1  0
 25 26  1  1
 25 27  2  0
  6 11  1  0
  6 12  1  0
 29 36  1  0
 29 37  1  0
  9  7  1  6
  7 13  1  0
 10  8  1  6
  8 14  1  0
  4  5  1  0
 36 28  1  1
 33 30  1  6
 30 38  1  0
 34 31  1  1
 31 39  1  0
 35 32  1  1
 32 40  1  0
 41 43  1  0
 15 19  2  0
 42 43  2  0
 16 22  2  0
 12 17  1  1
 17 19  1  0
 17 20  1  0
 18 19  1  0
 18 22  1  0
 18 23  1  0
  9 10  1  0
  9 11  1  0
 10 12  1  0
 11  5  1  1
 33 34  1  0
 33 35  1  0
 34 36  1  0
 35 37  1  0
 37 43  1  6
 20 21  2  0
 21 22  1  0
M  CHG  3   2  -1  26  -1  41  -1
M  END
>  <COMPND>  (116) 
    udp_gluA.pdb 

>  <AUTHOR>  (116) 
    GENERATED BY OPEN BABEL 3.1.1

>  <MASTER>  (116) 
        0    0    0    0    0    0    0    0   56    0   56    0

>  <minimizedAffinity>  (116) 
-5.83085

>  <CNNscore>  (116) 
0.4400305748

>  <CNNaffinity>  (116) 
3.9252769947

>  <CNN_VS>  (116) 
1.7272418737

>  <CNNaffinity_variance>  (116) 
0.6107805967

$$$$
117
     RDKit          3D

 43 45  0  0  0  0  0  0  0  0999 V2000
   23.0561   73.2104   -4.7060 P   0  0  2  0  0  0  0  0  0  0  0  0
   23.0776   74.8283   -4.6766 O   0  0  0  0  0  0  0  0  0  0  0  0
   23.8236   72.5870   -5.8349 O   0  0  0  0  0  0  0  0  0  0  0  0
   21.4822   72.8415   -4.6384 O   0  0  0  0  0  0  0  0  0  0  0  0
   20.8075   72.5334   -5.8443 C   0  0  0  0  0  0  0  0  0  0  0  0
   19.7142   70.5024   -5.1679 O   0  0  0  0  0  0  0  0  0  0  0  0
   20.9098   69.2610   -7.6217 O   0  0  0  0  0  0  0  0  0  0  0  0
   18.3394   69.7468   -8.3917 O   0  0  0  0  0  0  0  0  0  0  0  0
   20.4098   70.5846   -7.4307 C   0  0  1  0  0  0  0  0  0  0  0  0
   18.8963   70.5725   -7.3905 C   0  0  2  0  0  0  0  0  0  0  0  0
   20.7627   71.0204   -6.0151 C   0  0  1  0  0  0  0  0  0  0  0  0
   18.6223   70.0569   -5.9880 C   0  0  2  0  0  0  0  0  0  0  0  0
   20.6963   68.9607   -8.5194 H   0  0  0  0  0  0  0  0  0  0  0  0
   18.5411   70.1175   -9.2657 H   0  0  0  0  0  0  0  0  0  0  0  0
   16.6999   68.4862   -4.6411 O   0  0  0  0  0  0  0  0  0  0  0  0
   13.9462   72.1180   -3.9548 O   0  0  0  0  0  0  0  0  0  0  0  0
   17.3940   70.5664   -5.4471 N   0  0  0  0  0  0  0  0  0  0  0  0
   15.3298   70.2964   -4.3014 N   0  0  0  0  0  0  0  0  0  0  0  0
   16.4965   69.6927   -4.7888 C   0  0  0  0  0  0  0  0  0  0  0  0
   17.0896   71.9167   -5.5696 C   0  0  0  0  0  0  0  0  0  0  0  0
   15.9735   72.4775   -5.0997 C   0  0  0  0  0  0  0  0  0  0  0  0
   14.9827   71.6341   -4.3995 C   0  0  0  0  0  0  0  0  0  0  0  0
   14.6887   69.7078   -3.8411 H   0  0  0  0  0  0  0  0  0  0  0  0
   23.5861   72.8135   -3.2315 O   0  0  0  0  0  0  0  0  0  0  0  0
   23.6816   71.3812   -2.4878 P   0  0  2  0  0  0  0  0  0  0  0  0
   25.2427   70.9844   -2.6483 O   0  0  0  0  0  0  0  0  0  0  0  0
   22.7244   70.3502   -3.0119 O   0  0  0  0  0  0  0  0  0  0  0  0
   23.5070   71.7214   -0.9205 O   0  0  0  0  0  0  0  0  0  0  0  0
   25.0242   71.0263    0.7601 O   0  0  0  0  0  0  0  0  0  0  0  0
   21.5648   71.6133    2.9410 O   0  0  0  0  0  0  0  0  0  0  0  0
   21.4657   70.3058    0.3305 O   0  0  0  0  0  0  0  0  0  0  0  0
   23.7195   73.5605    3.0705 O   0  0  0  0  0  0  0  0  0  0  0  0
   22.4978   71.8538    1.8876 C   0  0  2  0  0  0  0  0  0  0  0  0
   22.6613   70.5856    1.0494 C   0  0  2  0  0  0  0  0  0  0  0  0
   23.8338   72.2495    2.5203 C   0  0  1  0  0  0  0  0  0  0  0  0
   23.8165   70.7304    0.0577 C   0  0  1  0  0  0  0  0  0  0  0  0
   24.9598   72.2493    1.4903 C   0  0  1  0  0  0  0  0  0  0  0  0
   20.7080   71.3602    2.5628 H   0  0  0  0  0  0  0  0  0  0  0  0
   20.7285   70.2129    0.9536 H   0  0  0  0  0  0  0  0  0  0  0  0
   23.0061   73.5743    3.7276 H   0  0  0  0  0  0  0  0  0  0  0  0
   26.6003   73.5860    2.5019 O   0  0  0  0  0  0  0  0  0  0  0  0
   27.0125   71.3467    2.3806 O   0  0  0  0  0  0  0  0  0  0  0  0
   26.2930   72.3097    2.1619 C   0  0  0  0  0  0  0  0  0  0  0  0
  1  4  1  0
  1 24  1  0
  1  2  1  6
  1  3  2  0
 25 28  1  0
 25 24  1  0
 25 26  1  1
 25 27  2  0
  6 11  1  0
  6 12  1  0
 29 36  1  0
 29 37  1  0
  9  7  1  1
  7 13  1  0
 10  8  1  6
  8 14  1  0
  4  5  1  0
 36 28  1  6
 33 30  1  1
 30 38  1  0
 34 31  1  6
 31 39  1  0
 35 32  1  6
 32 40  1  0
 41 43  1  0
 15 19  2  0
 42 43  2  0
 16 22  2  0
 12 17  1  1
 17 19  1  0
 17 20  1  0
 18 19  1  0
 18 22  1  0
 18 23  1  0
  9 10  1  0
  9 11  1  0
 10 12  1  0
 11  5  1  6
 33 34  1  0
 33 35  1  0
 34 36  1  0
 35 37  1  0
 37 43  1  1
 20 21  2  0
 21 22  1  0
M  CHG  3   2  -1  26  -1  41  -1
M  END
>  <COMPND>  (117) 
    udp_gluA.pdb 

>  <AUTHOR>  (117) 
    GENERATED BY OPEN BABEL 3.1.1

>  <MASTER>  (117) 
        0    0    0    0    0    0    0    0   56    0   56    0

>  <minimizedAffinity>  (117) 
-8.20034

>  <CNNscore>  (117) 
0.4376558363

>  <CNNaffinity>  (117) 
4.3868169785

>  <CNN_VS>  (117) 
1.9199160337

>  <CNNaffinity_variance>  (117) 
0.0543188676

$$$$
118
     RDKit          3D

 43 45  0  0  0  0  0  0  0  0999 V2000
   23.8600   72.1096   -2.7916 P   0  0  2  0  0  0  0  0  0  0  0  0
   24.9707   72.4544   -3.9169 O   0  0  0  0  0  0  0  0  0  0  0  0
   23.3292   73.2957   -2.0410 O   0  0  0  0  0  0  0  0  0  0  0  0
   24.5628   70.9646   -1.8900 O   0  0  0  0  0  0  0  0  0  0  0  0
   24.9068   71.2739   -0.5519 C   0  0  0  0  0  0  0  0  0  0  0  0
   24.6612   70.4659    1.6985 O   0  0  0  0  0  0  0  0  0  0  0  0
   21.8121   69.8718    0.9762 O   0  0  0  0  0  0  0  0  0  0  0  0
   21.5992   72.2060    2.3699 O   0  0  0  0  0  0  0  0  0  0  0  0
   22.6417   70.9577    0.5624 C   0  0  1  0  0  0  0  0  0  0  0  0
   22.8126   71.9479    1.6949 C   0  0  2  0  0  0  0  0  0  0  0  0
   24.0579   70.4266    0.3871 C   0  0  1  0  0  0  0  0  0  0  0  0
   23.8338   71.2475    2.5749 C   0  0  2  0  0  0  0  0  0  0  0  0
   20.9020   70.1867    1.0948 H   0  0  0  0  0  0  0  0  0  0  0  0
   20.9829   72.6527    1.7677 H   0  0  0  0  0  0  0  0  0  0  0  0
   23.1565   72.3803    5.0718 O   0  0  0  0  0  0  0  0  0  0  0  0
   27.0850   74.7841    5.2524 O   0  0  0  0  0  0  0  0  0  0  0  0
   24.6613   72.1722    3.2967 N   0  0  0  0  0  0  0  0  0  0  0  0
   25.1133   73.5772    5.1589 N   0  0  0  0  0  0  0  0  0  0  0  0
   24.2281   72.6826    4.5433 C   0  0  0  0  0  0  0  0  0  0  0  0
   25.8866   72.5631    2.7706 C   0  0  0  0  0  0  0  0  0  0  0  0
   26.7196   73.4166    3.3692 C   0  0  0  0  0  0  0  0  0  0  0  0
   26.3419   73.9965    4.6747 C   0  0  0  0  0  0  0  0  0  0  0  0
   24.8326   73.9474    6.0269 H   0  0  0  0  0  0  0  0  0  0  0  0
   22.7455   71.2848   -3.6225 O   0  0  0  0  0  0  0  0  0  0  0  0
   21.3720   71.7682   -4.3250 P   0  0  2  0  0  0  0  0  0  0  0  0
   21.5241   71.2298   -5.8440 O   0  0  0  0  0  0  0  0  0  0  0  0
   21.1097   73.2423   -4.2148 O   0  0  0  0  0  0  0  0  0  0  0  0
   20.2288   70.8343   -3.6745 O   0  0  0  0  0  0  0  0  0  0  0  0
   18.0923   71.8462   -3.8177 O   0  0  0  0  0  0  0  0  0  0  0  0
   17.2771   68.4751   -1.5729 O   0  0  0  0  0  0  0  0  0  0  0  0
   19.6860   70.0471   -1.0626 O   0  0  0  0  0  0  0  0  0  0  0  0
   16.5163   68.5803   -4.3766 O   0  0  0  0  0  0  0  0  0  0  0  0
   17.9544   69.2491   -2.5629 C   0  0  2  0  0  0  0  0  0  0  0  0
   18.6143   70.4599   -1.9027 C   0  0  2  0  0  0  0  0  0  0  0  0
   16.9212   69.7035   -3.5963 C   0  0  1  0  0  0  0  0  0  0  0  0
   19.1518   71.4313   -2.9546 C   0  0  1  0  0  0  0  0  0  0  0  0
   17.4968   70.7642   -4.5303 C   0  0  1  0  0  0  0  0  0  0  0  0
   17.9139   68.1752   -0.9051 H   0  0  0  0  0  0  0  0  0  0  0  0
   19.3522   69.4303   -0.3929 H   0  0  0  0  0  0  0  0  0  0  0  0
   16.1482   67.8977   -3.7940 H   0  0  0  0  0  0  0  0  0  0  0  0
   15.2174   71.2975   -4.6766 O   0  0  0  0  0  0  0  0  0  0  0  0
   16.5659   72.0231   -6.3660 O   0  0  0  0  0  0  0  0  0  0  0  0
   16.4100   71.4324   -5.3079 C   0  0  0  0  0  0  0  0  0  0  0  0
  1  4  1  0
  1 24  1  0
  1  2  1  6
  1  3  2  0
 25 28  1  0
 25 24  1  0
 25 26  1  6
 25 27  2  0
  6 11  1  0
  6 12  1  0
 29 36  1  0
 29 37  1  0
  9  7  1  1
  7 13  1  0
 10  8  1  1
  8 14  1  0
  4  5  1  0
 36 28  1  6
 33 30  1  1
 30 38  1  0
 34 31  1  1
 31 39  1  0
 35 32  1  6
 32 40  1  0
 41 43  1  0
 15 19  2  0
 42 43  2  0
 16 22  2  0
 12 17  1  6
 17 19  1  0
 17 20  1  0
 18 19  1  0
 18 22  1  0
 18 23  1  0
  9 10  1  0
  9 11  1  0
 10 12  1  0
 11  5  1  6
 33 34  1  0
 33 35  1  0
 34 36  1  0
 35 37  1  0
 37 43  1  1
 20 21  2  0
 21 22  1  0
M  CHG  3   2  -1  26  -1  41  -1
M  END
>  <COMPND>  (118) 
    udp_gluA.pdb 

>  <AUTHOR>  (118) 
    GENERATED BY OPEN BABEL 3.1.1

>  <MASTER>  (118) 
        0    0    0    0    0    0    0    0   56    0   56    0

>  <minimizedAffinity>  (118) 
-7.83898

>  <CNNscore>  (118) 
0.4198558331

>  <CNNaffinity>  (118) 
4.2081232071

>  <CNN_VS>  (118) 
1.7668050528

>  <CNNaffinity_variance>  (118) 
0.1600895226

$$$$
119
     RDKit          3D

 43 45  0  0  0  0  0  0  0  0999 V2000
   18.1471   69.9454   -2.4145 P   0  0  2  0  0  0  0  0  0  0  0  0
   17.5013   68.5215   -1.9972 O   0  0  0  0  0  0  0  0  0  0  0  0
   17.4173   71.1489   -1.8943 O   0  0  0  0  0  0  0  0  0  0  0  0
   18.2892   69.8510   -4.0235 O   0  0  0  0  0  0  0  0  0  0  0  0
   17.3513   69.0692   -4.7403 C   0  0  0  0  0  0  0  0  0  0  0  0
   17.1971   71.2689   -5.6970 O   0  0  0  0  0  0  0  0  0  0  0  0
   15.3612   70.0526   -7.7320 O   0  0  0  0  0  0  0  0  0  0  0  0
   17.7225   70.2217   -9.0854 O   0  0  0  0  0  0  0  0  0  0  0  0
   16.5148   69.4910   -7.1056 C   0  0  1  0  0  0  0  0  0  0  0  0
   17.7740   70.1058   -7.6789 C   0  0  2  0  0  0  0  0  0  0  0  0
   16.5503   69.9783   -5.6635 C   0  0  1  0  0  0  0  0  0  0  0  0
   17.8118   71.4551   -6.9818 C   0  0  2  0  0  0  0  0  0  0  0  0
   15.3170   69.7555   -8.6548 H   0  0  0  0  0  0  0  0  0  0  0  0
   17.7002   69.3363   -9.4822 H   0  0  0  0  0  0  0  0  0  0  0  0
   18.4833   74.1601   -6.5252 O   0  0  0  0  0  0  0  0  0  0  0  0
   22.9822   73.1905   -6.2730 O   0  0  0  0  0  0  0  0  0  0  0  0
   19.1508   71.9372   -6.7934 N   0  0  0  0  0  0  0  0  0  0  0  0
   20.7235   73.6747   -6.4010 N   0  0  0  0  0  0  0  0  0  0  0  0
   19.3799   73.3157   -6.5708 C   0  0  0  0  0  0  0  0  0  0  0  0
   20.2191   71.0492   -6.8283 C   0  0  0  0  0  0  0  0  0  0  0  0
   21.4944   71.4064   -6.6647 C   0  0  0  0  0  0  0  0  0  0  0  0
   21.8199   72.8282   -6.4281 C   0  0  0  0  0  0  0  0  0  0  0  0
   20.9081   74.6294   -6.2467 H   0  0  0  0  0  0  0  0  0  0  0  0
   19.6759   69.8134   -1.9064 O   0  0  0  0  0  0  0  0  0  0  0  0
   21.0259   70.5542   -2.3989 P   0  0  2  0  0  0  0  0  0  0  0  0
   20.5104   72.0364   -2.7963 O   0  0  0  0  0  0  0  0  0  0  0  0
   21.7555   69.8378   -3.4982 O   0  0  0  0  0  0  0  0  0  0  0  0
   21.8884   70.7704   -1.0529 O   0  0  0  0  0  0  0  0  0  0  0  0
   22.4445   72.5743    0.3775 O   0  0  0  0  0  0  0  0  0  0  0  0
   26.0831   70.6565   -0.0105 O   0  0  0  0  0  0  0  0  0  0  0  0
   24.3461   71.0204   -2.3310 O   0  0  0  0  0  0  0  0  0  0  0  0
   24.5389   70.3750    2.4363 O   0  0  0  0  0  0  0  0  0  0  0  0
   24.6604   70.7502    0.0595 C   0  0  2  0  0  0  0  0  0  0  0  0
   24.1505   71.6473   -1.0687 C   0  0  2  0  0  0  0  0  0  0  0  0
   24.2920   71.3452    1.4204 C   0  0  1  0  0  0  0  0  0  0  0  0
   22.6634   71.9571   -0.8916 C   0  0  1  0  0  0  0  0  0  0  0  0
   22.8200   71.7439    1.4741 C   0  0  1  0  0  0  0  0  0  0  0  0
   26.3409   70.2809   -0.8671 H   0  0  0  0  0  0  0  0  0  0  0  0
   25.2876   70.8207   -2.4499 H   0  0  0  0  0  0  0  0  0  0  0  0
   25.4724   70.1126    2.4129 H   0  0  0  0  0  0  0  0  0  0  0  0
   23.7073   72.9768    3.2613 O   0  0  0  0  0  0  0  0  0  0  0  0
   21.4379   72.9506    3.0410 O   0  0  0  0  0  0  0  0  0  0  0  0
   22.5481   72.6110    2.6600 C   0  0  0  0  0  0  0  0  0  0  0  0
  1  4  1  0
  1 24  1  0
  1  2  1  1
  1  3  2  0
 25 28  1  0
 25 24  1  0
 25 26  1  6
 25 27  2  0
  6 11  1  0
  6 12  1  0
 29 36  1  0
 29 37  1  0
  9  7  1  6
  7 13  1  0
 10  8  1  6
  8 14  1  0
  4  5  1  0
 36 28  1  1
 33 30  1  1
 30 38  1  0
 34 31  1  6
 31 39  1  0
 35 32  1  1
 32 40  1  0
 41 43  1  0
 15 19  2  0
 42 43  2  0
 16 22  2  0
 12 17  1  1
 17 19  1  0
 17 20  1  0
 18 19  1  0
 18 22  1  0
 18 23  1  0
  9 10  1  0
  9 11  1  0
 10 12  1  0
 11  5  1  1
 33 34  1  0
 33 35  1  0
 34 36  1  0
 35 37  1  0
 37 43  1  1
 20 21  2  0
 21 22  1  0
M  CHG  3   2  -1  26  -1  41  -1
M  END
>  <COMPND>  (119) 
    udp_gluA.pdb 

>  <AUTHOR>  (119) 
    GENERATED BY OPEN BABEL 3.1.1

>  <MASTER>  (119) 
        0    0    0    0    0    0    0    0   56    0   56    0

>  <minimizedAffinity>  (119) 
-7.72458

>  <CNNscore>  (119) 
0.4187336564

>  <CNNaffinity>  (119) 
4.2040300369

>  <CNN_VS>  (119) 
1.7603688240

>  <CNNaffinity_variance>  (119) 
0.5670935512

$$$$
120
     RDKit          3D

 43 45  0  0  0  0  0  0  0  0999 V2000
   21.4975   72.7517   -4.5052 P   0  0  2  0  0  0  0  0  0  0  0  0
   20.3411   72.6828   -3.3752 O   0  0  0  0  0  0  0  0  0  0  0  0
   21.5560   74.0389   -5.2742 O   0  0  0  0  0  0  0  0  0  0  0  0
   21.2587   71.4165   -5.3873 O   0  0  0  0  0  0  0  0  0  0  0  0
   20.2404   71.4290   -6.3709 C   0  0  0  0  0  0  0  0  0  0  0  0
   17.9962   71.3230   -5.5164 O   0  0  0  0  0  0  0  0  0  0  0  0
   17.9724   68.4748   -6.4537 O   0  0  0  0  0  0  0  0  0  0  0  0
   16.5835   69.7600   -8.4173 O   0  0  0  0  0  0  0  0  0  0  0  0
   18.5885   69.6170   -7.0491 C   0  0  1  0  0  0  0  0  0  0  0  0
   17.5416   70.5019   -7.6918 C   0  0  2  0  0  0  0  0  0  0  0  0
   19.1126   70.5053   -5.9291 C   0  0  1  0  0  0  0  0  0  0  0  0
   16.9439   71.2091   -6.4874 C   0  0  2  0  0  0  0  0  0  0  0  0
   17.6296   67.8922   -7.1500 H   0  0  0  0  0  0  0  0  0  0  0  0
   17.0131   69.3293   -9.1735 H   0  0  0  0  0  0  0  0  0  0  0  0
   14.3775   71.7512   -7.5344 O   0  0  0  0  0  0  0  0  0  0  0  0
   15.1936   76.2852   -7.6778 O   0  0  0  0  0  0  0  0  0  0  0  0
   16.4597   72.5221   -6.8074 N   0  0  0  0  0  0  0  0  0  0  0  0
   14.7868   74.0088   -7.6058 N   0  0  0  0  0  0  0  0  0  0  0  0
   15.1545   72.6855   -7.3288 C   0  0  0  0  0  0  0  0  0  0  0  0
   17.2731   73.6301   -6.6031 C   0  0  0  0  0  0  0  0  0  0  0  0
   16.9085   74.8854   -6.8719 C   0  0  0  0  0  0  0  0  0  0  0  0
   15.5607   75.1428   -7.4201 C   0  0  0  0  0  0  0  0  0  0  0  0
   13.8833   74.1475   -7.9715 H   0  0  0  0  0  0  0  0  0  0  0  0
   22.8388   72.4027   -3.6735 O   0  0  0  0  0  0  0  0  0  0  0  0
   23.2225   71.1196   -2.7679 P   0  0  2  0  0  0  0  0  0  0  0  0
   24.8368   71.0618   -2.8734 O   0  0  0  0  0  0  0  0  0  0  0  0
   22.5305   69.8505   -3.1734 O   0  0  0  0  0  0  0  0  0  0  0  0
   22.9300   71.5865   -1.2517 O   0  0  0  0  0  0  0  0  0  0  0  0
   24.6969   71.8250    0.3073 O   0  0  0  0  0  0  0  0  0  0  0  0
   21.4099   71.5606    2.7960 O   0  0  0  0  0  0  0  0  0  0  0  0
   21.6475   69.8144    0.4661 O   0  0  0  0  0  0  0  0  0  0  0  0
   22.6830   74.1319    2.3283 O   0  0  0  0  0  0  0  0  0  0  0  0
   22.1186   71.9039    1.6053 C   0  0  2  0  0  0  0  0  0  0  0  0
   22.6931   70.6381    0.9688 C   0  0  2  0  0  0  0  0  0  0  0  0
   23.2456   72.8665    1.9867 C   0  0  1  0  0  0  0  0  0  0  0  0
   23.6471   70.9855   -0.1750 C   0  0  1  0  0  0  0  0  0  0  0  0
   24.2244   73.0634    0.8327 C   0  0  1  0  0  0  0  0  0  0  0  0
   20.6886   70.9493    2.5783 H   0  0  0  0  0  0  0  0  0  0  0  0
   21.0382   69.5904    1.1865 H   0  0  0  0  0  0  0  0  0  0  0  0
   22.0579   74.0205    3.0616 H   0  0  0  0  0  0  0  0  0  0  0  0
   26.0828   72.9780    2.2612 O   0  0  0  0  0  0  0  0  0  0  0  0
   25.9041   74.7943    0.8944 O   0  0  0  0  0  0  0  0  0  0  0  0
   25.4766   73.7264    1.3065 C   0  0  0  0  0  0  0  0  0  0  0  0
  1  4  1  0
  1 24  1  0
  1  2  1  1
  1  3  2  0
 25 28  1  0
 25 24  1  0
 25 26  1  1
 25 27  2  0
  6 11  1  0
  6 12  1  0
 29 36  1  0
 29 37  1  0
  9  7  1  1
  7 13  1  0
 10  8  1  1
  8 14  1  0
  4  5  1  0
 36 28  1  6
 33 30  1  1
 30 38  1  0
 34 31  1  6
 31 39  1  0
 35 32  1  6
 32 40  1  0
 41 43  1  0
 15 19  2  0
 42 43  2  0
 16 22  2  0
 12 17  1  6
 17 19  1  0
 17 20  1  0
 18 19  1  0
 18 22  1  0
 18 23  1  0
  9 10  1  0
  9 11  1  0
 10 12  1  0
 11  5  1  6
 33 34  1  0
 33 35  1  0
 34 36  1  0
 35 37  1  0
 37 43  1  1
 20 21  2  0
 21 22  1  0
M  CHG  3   2  -1  26  -1  41  -1
M  END
>  <COMPND>  (120) 
    udp_gluA.pdb 

>  <AUTHOR>  (120) 
    GENERATED BY OPEN BABEL 3.1.1

>  <MASTER>  (120) 
        0    0    0    0    0    0    0    0   56    0   56    0

>  <minimizedAffinity>  (120) 
-7.01662

>  <CNNscore>  (120) 
0.4155526757

>  <CNNaffinity>  (120) 
4.1521186829

>  <CNN_VS>  (120) 
1.7254240513

>  <CNNaffinity_variance>  (120) 
0.0455894433

$$$$
121
     RDKit          3D

 43 45  0  0  0  0  0  0  0  0999 V2000
   20.7145   71.8700   -1.9251 P   0  0  2  0  0  0  0  0  0  0  0  0
   20.7451   70.3469   -2.4710 O   0  0  0  0  0  0  0  0  0  0  0  0
   19.3687   72.5324   -1.9704 O   0  0  0  0  0  0  0  0  0  0  0  0
   21.8883   72.6059   -2.7609 O   0  0  0  0  0  0  0  0  0  0  0  0
   21.5527   73.2435   -3.9797 C   0  0  0  0  0  0  0  0  0  0  0  0
   21.8297   71.3808   -5.4734 O   0  0  0  0  0  0  0  0  0  0  0  0
   23.5841   73.1867   -7.1019 O   0  0  0  0  0  0  0  0  0  0  0  0
   21.2311   73.2417   -8.4789 O   0  0  0  0  0  0  0  0  0  0  0  0
   22.4026   73.4996   -6.3639 C   0  0  1  0  0  0  0  0  0  0  0  0
   21.1786   72.9847   -7.0912 C   0  0  2  0  0  0  0  0  0  0  0  0
   22.4011   72.6529   -5.0985 C   0  0  1  0  0  0  0  0  0  0  0  0
   21.2216   71.5006   -6.7693 C   0  0  2  0  0  0  0  0  0  0  0  0
   23.6074   73.7156   -7.9152 H   0  0  0  0  0  0  0  0  0  0  0  0
   21.2006   74.1997   -8.6316 H   0  0  0  0  0  0  0  0  0  0  0  0
   19.8591   70.4813   -9.0234 O   0  0  0  0  0  0  0  0  0  0  0  0
   16.2064   69.2606   -6.4913 O   0  0  0  0  0  0  0  0  0  0  0  0
   19.9134   70.9109   -6.7275 N   0  0  0  0  0  0  0  0  0  0  0  0
   18.0407   69.8752   -7.7603 N   0  0  0  0  0  0  0  0  0  0  0  0
   19.3179   70.4295   -7.9173 C   0  0  0  0  0  0  0  0  0  0  0  0
   19.2352   70.8124   -5.5187 C   0  0  0  0  0  0  0  0  0  0  0  0
   18.0183   70.2814   -5.3847 C   0  0  0  0  0  0  0  0  0  0  0  0
   17.3258   69.7558   -6.5795 C   0  0  0  0  0  0  0  0  0  0  0  0
   17.6050   69.5351   -8.5750 H   0  0  0  0  0  0  0  0  0  0  0  0
   21.3504   71.7378   -0.4449 O   0  0  0  0  0  0  0  0  0  0  0  0
   22.3363   70.6256    0.1913 P   0  0  2  0  0  0  0  0  0  0  0  0
   23.4945   70.4736   -0.9294 O   0  0  0  0  0  0  0  0  0  0  0  0
   21.6570   69.3378    0.5573 O   0  0  0  0  0  0  0  0  0  0  0  0
   23.0582   71.3756    1.4237 O   0  0  0  0  0  0  0  0  0  0  0  0
   22.6461   72.9768    3.1194 O   0  0  0  0  0  0  0  0  0  0  0  0
   26.0129   74.5298    1.2971 O   0  0  0  0  0  0  0  0  0  0  0  0
   23.8461   73.4050   -0.3074 O   0  0  0  0  0  0  0  0  0  0  0  0
   26.2311   73.1938    3.8697 O   0  0  0  0  0  0  0  0  0  0  0  0
   25.1325   73.5002    1.7474 C   0  0  2  0  0  0  0  0  0  0  0  0
   23.7640   73.6723    1.0878 C   0  0  2  0  0  0  0  0  0  0  0  0
   25.0085   73.6158    3.2683 C   0  0  1  0  0  0  0  0  0  0  0  0
   22.7324   72.7335    1.7149 C   0  0  1  0  0  0  0  0  0  0  0  0
   23.8758   72.7441    3.8028 C   0  0  1  0  0  0  0  0  0  0  0  0
   26.1070   74.4762    0.3329 H   0  0  0  0  0  0  0  0  0  0  0  0
   24.4991   73.9970   -0.7117 H   0  0  0  0  0  0  0  0  0  0  0  0
   26.9603   73.7406    3.5378 H   0  0  0  0  0  0  0  0  0  0  0  0
   22.2952   73.6169    5.2999 O   0  0  0  0  0  0  0  0  0  0  0  0
   24.2999   72.9634    6.1678 O   0  0  0  0  0  0  0  0  0  0  0  0
   23.5486   73.1064    5.2149 C   0  0  0  0  0  0  0  0  0  0  0  0
  1  4  1  0
  1 24  1  0
  1  2  1  6
  1  3  2  0
 25 28  1  0
 25 24  1  0
 25 26  1  6
 25 27  2  0
  6 11  1  0
  6 12  1  0
 29 36  1  0
 29 37  1  0
  9  7  1  6
  7 13  1  0
 10  8  1  6
  8 14  1  0
  4  5  1  0
 36 28  1  1
 33 30  1  6
 30 38  1  0
 34 31  1  6
 31 39  1  0
 35 32  1  1
 32 40  1  0
 41 43  1  0
 15 19  2  0
 42 43  2  0
 16 22  2  0
 12 17  1  1
 17 19  1  0
 17 20  1  0
 18 19  1  0
 18 22  1  0
 18 23  1  0
  9 10  1  0
  9 11  1  0
 10 12  1  0
 11  5  1  1
 33 34  1  0
 33 35  1  0
 34 36  1  0
 35 37  1  0
 37 43  1  1
 20 21  2  0
 21 22  1  0
M  CHG  3   2  -1  26  -1  41  -1
M  END
>  <COMPND>  (121) 
    udp_gluA.pdb 

>  <AUTHOR>  (121) 
    GENERATED BY OPEN BABEL 3.1.1

>  <MASTER>  (121) 
        0    0    0    0    0    0    0    0   56    0   56    0

>  <minimizedAffinity>  (121) 
-6.76729

>  <CNNscore>  (121) 
0.7269412875

>  <CNNaffinity>  (121) 
4.3827571869

>  <CNN_VS>  (121) 
3.1860072613

>  <CNNaffinity_variance>  (121) 
0.0159574058

$$$$
122
     RDKit          3D

 43 45  0  0  0  0  0  0  0  0999 V2000
   24.2111   72.0656   -3.1447 P   0  0  2  0  0  0  0  0  0  0  0  0
   24.9224   73.3109   -3.8945 O   0  0  0  0  0  0  0  0  0  0  0  0
   25.1063   70.8911   -2.8787 O   0  0  0  0  0  0  0  0  0  0  0  0
   22.9043   71.7624   -4.0494 O   0  0  0  0  0  0  0  0  0  0  0  0
   22.3469   72.8200   -4.8079 C   0  0  0  0  0  0  0  0  0  0  0  0
   21.1937   70.9889   -5.8543 O   0  0  0  0  0  0  0  0  0  0  0  0
   20.7135   72.8499   -8.1559 O   0  0  0  0  0  0  0  0  0  0  0  0
   18.3229   72.8947   -6.8446 O   0  0  0  0  0  0  0  0  0  0  0  0
   20.7412   73.1318   -6.7565 C   0  0  1  0  0  0  0  0  0  0  0  0
   19.4841   72.6119   -6.0920 C   0  0  2  0  0  0  0  0  0  0  0  0
   21.8190   72.2624   -6.1235 C   0  0  1  0  0  0  0  0  0  0  0  0
   19.7706   71.1231   -5.9962 C   0  0  2  0  0  0  0  0  0  0  0  0
   20.0321   73.3938   -8.5821 H   0  0  0  0  0  0  0  0  0  0  0  0
   18.1838   73.8547   -6.8759 H   0  0  0  0  0  0  0  0  0  0  0  0
   17.2288   69.8946   -6.0762 O   0  0  0  0  0  0  0  0  0  0  0  0
   17.4073   68.8156   -1.5988 O   0  0  0  0  0  0  0  0  0  0  0  0
   19.1291   70.5132   -4.8660 N   0  0  0  0  0  0  0  0  0  0  0  0
   17.3197   69.3592   -3.8459 N   0  0  0  0  0  0  0  0  0  0  0  0
   17.8512   69.9236   -5.0129 C   0  0  0  0  0  0  0  0  0  0  0  0
   19.7649   70.5016   -3.6304 C   0  0  0  0  0  0  0  0  0  0  0  0
   19.2456   69.9597   -2.5271 C   0  0  0  0  0  0  0  0  0  0  0  0
   17.9135   69.3237   -2.5946 C   0  0  0  0  0  0  0  0  0  0  0  0
   16.4301   68.9445   -3.9229 H   0  0  0  0  0  0  0  0  0  0  0  0
   23.5854   72.7490   -1.8202 O   0  0  0  0  0  0  0  0  0  0  0  0
   22.5366   72.1826   -0.7280 P   0  0  2  0  0  0  0  0  0  0  0  0
   22.6791   70.5769   -0.8765 O   0  0  0  0  0  0  0  0  0  0  0  0
   21.1361   72.6972   -0.8945 O   0  0  0  0  0  0  0  0  0  0  0  0
   23.2090   72.5208    0.6989 O   0  0  0  0  0  0  0  0  0  0  0  0
   24.9994   71.4688    1.8378 O   0  0  0  0  0  0  0  0  0  0  0  0
   22.6235   72.7180    4.9783 O   0  0  0  0  0  0  0  0  0  0  0  0
   21.4224   71.5384    2.5908 O   0  0  0  0  0  0  0  0  0  0  0  0
   25.0677   74.1549    4.3363 O   0  0  0  0  0  0  0  0  0  0  0  0
   23.2003   72.7840    3.6741 C   0  0  2  0  0  0  0  0  0  0  0  0
   22.8155   71.5351    2.8805 C   0  0  2  0  0  0  0  0  0  0  0  0
   24.7202   72.8664    3.8328 C   0  0  1  0  0  0  0  0  0  0  0  0
   23.5970   71.4585    1.5682 C   0  0  1  0  0  0  0  0  0  0  0  0
   25.4317   72.6555    2.4995 C   0  0  1  0  0  0  0  0  0  0  0  0
   21.6577   72.6649    4.9026 H   0  0  0  0  0  0  0  0  0  0  0  0
   20.9204   71.5872    3.4190 H   0  0  0  0  0  0  0  0  0  0  0  0
   24.6211   74.3018    5.1847 H   0  0  0  0  0  0  0  0  0  0  0  0
   27.5420   73.5745    2.9512 O   0  0  0  0  0  0  0  0  0  0  0  0
   27.4296   71.3141    2.6733 O   0  0  0  0  0  0  0  0  0  0  0  0
   26.8904   72.4099    2.7097 C   0  0  0  0  0  0  0  0  0  0  0  0
  1  4  1  0
  1 24  1  0
  1  2  1  6
  1  3  2  0
 25 28  1  0
 25 24  1  0
 25 26  1  6
 25 27  2  0
  6 11  1  0
  6 12  1  0
 29 36  1  0
 29 37  1  0
  9  7  1  6
  7 13  1  0
 10  8  1  6
  8 14  1  0
  4  5  1  0
 36 28  1  6
 33 30  1  1
 30 38  1  0
 34 31  1  6
 31 39  1  0
 35 32  1  6
 32 40  1  0
 41 43  1  0
 15 19  2  0
 42 43  2  0
 16 22  2  0
 12 17  1  1
 17 19  1  0
 17 20  1  0
 18 19  1  0
 18 22  1  0
 18 23  1  0
  9 10  1  0
  9 11  1  0
 10 12  1  0
 11  5  1  1
 33 34  1  0
 33 35  1  0
 34 36  1  0
 35 37  1  0
 37 43  1  1
 20 21  2  0
 21 22  1  0
M  CHG  3   2  -1  26  -1  41  -1
M  END
>  <COMPND>  (122) 
    udp_gluA.pdb 

>  <AUTHOR>  (122) 
    GENERATED BY OPEN BABEL 3.1.1

>  <MASTER>  (122) 
        0    0    0    0    0    0    0    0   56    0   56    0

>  <minimizedAffinity>  (122) 
-7.88372

>  <CNNscore>  (122) 
0.7040037513

>  <CNNaffinity>  (122) 
4.4215211868

>  <CNN_VS>  (122) 
3.1127674580

>  <CNNaffinity_variance>  (122) 
0.1340946406

$$$$
123
     RDKit          3D

 43 45  0  0  0  0  0  0  0  0999 V2000
   23.4003   71.5364   -2.7092 P   0  0  2  0  0  0  0  0  0  0  0  0
   23.3185   73.0891   -2.2606 O   0  0  0  0  0  0  0  0  0  0  0  0
   24.7891   70.9755   -2.8003 O   0  0  0  0  0  0  0  0  0  0  0  0
   22.5287   71.4790   -4.0712 O   0  0  0  0  0  0  0  0  0  0  0  0
   22.3783   72.6660   -4.8281 C   0  0  0  0  0  0  0  0  0  0  0  0
   21.1262   71.0778   -6.1272 O   0  0  0  0  0  0  0  0  0  0  0  0
   20.9547   73.2113   -8.2273 O   0  0  0  0  0  0  0  0  0  0  0  0
   18.5051   73.3486   -7.0369 O   0  0  0  0  0  0  0  0  0  0  0  0
   20.9256   73.3385   -6.8055 C   0  0  1  0  0  0  0  0  0  0  0  0
   19.5892   72.8756   -6.2651 C   0  0  2  0  0  0  0  0  0  0  0  0
   21.8802   72.3058   -6.2219 C   0  0  1  0  0  0  0  0  0  0  0  0
   19.7322   71.3642   -6.3223 C   0  0  2  0  0  0  0  0  0  0  0  0
   20.3522   73.8612   -8.6227 H   0  0  0  0  0  0  0  0  0  0  0  0
   18.4564   74.3155   -6.9675 H   0  0  0  0  0  0  0  0  0  0  0  0
   17.7419   69.4230   -6.8186 O   0  0  0  0  0  0  0  0  0  0  0  0
   16.8796   68.8928   -2.3220 O   0  0  0  0  0  0  0  0  0  0  0  0
   18.9721   70.7028   -5.2997 N   0  0  0  0  0  0  0  0  0  0  0  0
   17.3136   69.1615   -4.5786 N   0  0  0  0  0  0  0  0  0  0  0  0
   17.9953   69.7430   -5.6558 C   0  0  0  0  0  0  0  0  0  0  0  0
   19.1981   71.0051   -3.9624 C   0  0  0  0  0  0  0  0  0  0  0  0
   18.5404   70.4424   -2.9467 C   0  0  0  0  0  0  0  0  0  0  0  0
   17.5028   69.4300   -3.2327 C   0  0  0  0  0  0  0  0  0  0  0  0
   16.6273   68.4918   -4.8017 H   0  0  0  0  0  0  0  0  0  0  0  0
   22.4448   70.7975   -1.6349 O   0  0  0  0  0  0  0  0  0  0  0  0
   22.6140   70.5709   -0.0432 P   0  0  2  0  0  0  0  0  0  0  0  0
   24.2172   70.4493    0.1448 O   0  0  0  0  0  0  0  0  0  0  0  0
   21.8377   69.4059    0.4989 O   0  0  0  0  0  0  0  0  0  0  0  0
   22.2336   71.9936    0.6155 O   0  0  0  0  0  0  0  0  0  0  0  0
   22.3215   72.0078    2.9822 O   0  0  0  0  0  0  0  0  0  0  0  0
   20.5920   75.6736    2.1831 O   0  0  0  0  0  0  0  0  0  0  0  0
   19.7771   73.2958    0.6944 O   0  0  0  0  0  0  0  0  0  0  0  0
   23.3829   75.5200    2.9818 O   0  0  0  0  0  0  0  0  0  0  0  0
   21.4395   74.5514    1.9378 C   0  0  2  0  0  0  0  0  0  0  0  0
   20.5947   73.2796    1.8589 C   0  0  2  0  0  0  0  0  0  0  0  0
   22.4412   74.4543    3.0907 C   0  0  1  0  0  0  0  0  0  0  0  0
   21.4820   72.0344    1.8272 C   0  0  1  0  0  0  0  0  0  0  0  0
   23.1981   73.1296    3.0609 C   0  0  1  0  0  0  0  0  0  0  0  0
   19.9468   75.7553    1.4632 H   0  0  0  0  0  0  0  0  0  0  0  0
   19.2116   74.0834    0.7078 H   0  0  0  0  0  0  0  0  0  0  0  0
   22.9140   76.3689    2.9993 H   0  0  0  0  0  0  0  0  0  0  0  0
   25.1438   73.4843    4.3219 O   0  0  0  0  0  0  0  0  0  0  0  0
   23.4742   72.2799    5.3022 O   0  0  0  0  0  0  0  0  0  0  0  0
   23.9195   72.9018    4.3493 C   0  0  0  0  0  0  0  0  0  0  0  0
  1  4  1  0
  1 24  1  0
  1  2  1  1
  1  3  2  0
 25 28  1  0
 25 24  1  0
 25 26  1  6
 25 27  2  0
  6 11  1  0
  6 12  1  0
 29 36  1  0
 29 37  1  0
  9  7  1  6
  7 13  1  0
 10  8  1  6
  8 14  1  0
  4  5  1  0
 36 28  1  6
 33 30  1  1
 30 38  1  0
 34 31  1  6
 31 39  1  0
 35 32  1  6
 32 40  1  0
 41 43  1  0
 15 19  2  0
 42 43  2  0
 16 22  2  0
 12 17  1  1
 17 19  1  0
 17 20  1  0
 18 19  1  0
 18 22  1  0
 18 23  1  0
  9 10  1  0
  9 11  1  0
 10 12  1  0
 11  5  1  1
 33 34  1  0
 33 35  1  0
 34 36  1  0
 35 37  1  0
 37 43  1  1
 20 21  2  0
 21 22  1  0
M  CHG  3   2  -1  26  -1  41  -1
M  END
>  <COMPND>  (123) 
    udp_gluA.pdb 

>  <AUTHOR>  (123) 
    GENERATED BY OPEN BABEL 3.1.1

>  <MASTER>  (123) 
        0    0    0    0    0    0    0    0   56    0   56    0

>  <minimizedAffinity>  (123) 
-7.34101

>  <CNNscore>  (123) 
0.6447200775

>  <CNNaffinity>  (123) 
4.3195362091

>  <CNN_VS>  (123) 
2.7848916054

>  <CNNaffinity_variance>  (123) 
0.1314128786

$$$$
124
     RDKit          3D

 43 45  0  0  0  0  0  0  0  0999 V2000
   21.2795   73.2616   -1.1534 P   0  0  2  0  0  0  0  0  0  0  0  0
   19.8588   73.9538   -0.8051 O   0  0  0  0  0  0  0  0  0  0  0  0
   22.4857   74.0942   -0.8315 O   0  0  0  0  0  0  0  0  0  0  0  0
   21.1257   72.8166   -2.7013 O   0  0  0  0  0  0  0  0  0  0  0  0
   19.9907   73.2592   -3.4226 C   0  0  0  0  0  0  0  0  0  0  0  0
   20.3658   72.1214   -5.5064 O   0  0  0  0  0  0  0  0  0  0  0  0
   20.0458   74.8011   -6.8134 O   0  0  0  0  0  0  0  0  0  0  0  0
   17.6172   73.6364   -7.2397 O   0  0  0  0  0  0  0  0  0  0  0  0
   19.3702   74.2641   -5.6760 C   0  0  1  0  0  0  0  0  0  0  0  0
   18.3580   73.2251   -6.1098 C   0  0  2  0  0  0  0  0  0  0  0  0
   20.3688   73.4267   -4.8886 C   0  0  1  0  0  0  0  0  0  0  0  0
   19.2423   72.0235   -6.3961 C   0  0  2  0  0  0  0  0  0  0  0  0
   19.4277   75.3402   -7.3322 H   0  0  0  0  0  0  0  0  0  0  0  0
   17.0705   74.4035   -7.0061 H   0  0  0  0  0  0  0  0  0  0  0  0
   18.5771   70.1641   -8.4151 O   0  0  0  0  0  0  0  0  0  0  0  0
   16.6543   67.2785   -5.3786 O   0  0  0  0  0  0  0  0  0  0  0  0
   18.5678   70.7782   -6.1610 N   0  0  0  0  0  0  0  0  0  0  0  0
   17.6192   68.7291   -6.9010 N   0  0  0  0  0  0  0  0  0  0  0  0
   18.2802   69.9156   -7.2451 C   0  0  0  0  0  0  0  0  0  0  0  0
   18.2000   70.4217   -4.8692 C   0  0  0  0  0  0  0  0  0  0  0  0
   17.5705   69.2873   -4.5568 C   0  0  0  0  0  0  0  0  0  0  0  0
   17.2325   68.3311   -5.6315 C   0  0  0  0  0  0  0  0  0  0  0  0
   17.4065   68.1135   -7.6393 H   0  0  0  0  0  0  0  0  0  0  0  0
   21.2016   71.8547   -0.3613 O   0  0  0  0  0  0  0  0  0  0  0  0
   22.3318   70.7356   -0.0718 P   0  0  2  0  0  0  0  0  0  0  0  0
   23.0133   70.5141   -1.5232 O   0  0  0  0  0  0  0  0  0  0  0  0
   21.8072   69.4804    0.5632 O   0  0  0  0  0  0  0  0  0  0  0  0
   23.4563   71.5038    0.7930 O   0  0  0  0  0  0  0  0  0  0  0  0
   25.1665   71.1720    2.3975 O   0  0  0  0  0  0  0  0  0  0  0  0
   22.7452   73.9221    4.3061 O   0  0  0  0  0  0  0  0  0  0  0  0
   21.5733   71.6889    2.8316 O   0  0  0  0  0  0  0  0  0  0  0  0
   25.2640   74.7667    3.1258 O   0  0  0  0  0  0  0  0  0  0  0  0
   23.3649   73.2854    3.1886 C   0  0  2  0  0  0  0  0  0  0  0  0
   22.9553   71.8130    3.1466 C   0  0  2  0  0  0  0  0  0  0  0  0
   24.8811   73.4117    3.3533 C   0  0  1  0  0  0  0  0  0  0  0  0
   23.7739   71.0470    2.1065 C   0  0  1  0  0  0  0  0  0  0  0  0
   25.6251   72.5216    2.3620 C   0  0  1  0  0  0  0  0  0  0  0  0
   21.7810   73.8544    4.2233 H   0  0  0  0  0  0  0  0  0  0  0  0
   21.0479   72.1729    3.4875 H   0  0  0  0  0  0  0  0  0  0  0  0
   24.7973   75.3438    3.7503 H   0  0  0  0  0  0  0  0  0  0  0  0
   27.6248   73.6205    2.9054 O   0  0  0  0  0  0  0  0  0  0  0  0
   27.6640   71.3408    2.8819 O   0  0  0  0  0  0  0  0  0  0  0  0
   27.0655   72.3964    2.7389 C   0  0  0  0  0  0  0  0  0  0  0  0
  1  4  1  0
  1 24  1  0
  1  2  1  1
  1  3  2  0
 25 28  1  0
 25 24  1  0
 25 26  1  6
 25 27  2  0
  6 11  1  0
  6 12  1  0
 29 36  1  0
 29 37  1  0
  9  7  1  6
  7 13  1  0
 10  8  1  6
  8 14  1  0
  4  5  1  0
 36 28  1  6
 33 30  1  1
 30 38  1  0
 34 31  1  6
 31 39  1  0
 35 32  1  6
 32 40  1  0
 41 43  1  0
 15 19  2  0
 42 43  2  0
 16 22  2  0
 12 17  1  1
 17 19  1  0
 17 20  1  0
 18 19  1  0
 18 22  1  0
 18 23  1  0
  9 10  1  0
  9 11  1  0
 10 12  1  0
 11  5  1  1
 33 34  1  0
 33 35  1  0
 34 36  1  0
 35 37  1  0
 37 43  1  1
 20 21  2  0
 21 22  1  0
M  CHG  3   2  -1  26  -1  41  -1
M  END
>  <COMPND>  (124) 
    udp_gluA.pdb 

>  <AUTHOR>  (124) 
    GENERATED BY OPEN BABEL 3.1.1

>  <MASTER>  (124) 
        0    0    0    0    0    0    0    0   56    0   56    0

>  <minimizedAffinity>  (124) 
-7.32159

>  <CNNscore>  (124) 
0.6340107918

>  <CNNaffinity>  (124) 
4.2690658569

>  <CNN_VS>  (124) 
2.7066338062

>  <CNNaffinity_variance>  (124) 
0.0255663134

$$$$
125
     RDKit          3D

 43 45  0  0  0  0  0  0  0  0999 V2000
   21.9666   73.7110   -1.8865 P   0  0  2  0  0  0  0  0  0  0  0  0
   21.3106   73.4398   -0.4322 O   0  0  0  0  0  0  0  0  0  0  0  0
   22.2181   75.1548   -2.2088 O   0  0  0  0  0  0  0  0  0  0  0  0
   20.9885   72.9234   -2.9069 O   0  0  0  0  0  0  0  0  0  0  0  0
   20.9697   73.3189   -4.2662 C   0  0  0  0  0  0  0  0  0  0  0  0
   21.2907   71.2333   -5.4173 O   0  0  0  0  0  0  0  0  0  0  0  0
   23.6683   72.5257   -6.7088 O   0  0  0  0  0  0  0  0  0  0  0  0
   21.7700   72.6858   -8.6599 O   0  0  0  0  0  0  0  0  0  0  0  0
   22.4109   73.0997   -6.3512 C   0  0  1  0  0  0  0  0  0  0  0  0
   21.3353   72.6488   -7.3167 C   0  0  2  0  0  0  0  0  0  0  0  0
   21.9564   72.4599   -5.0465 C   0  0  1  0  0  0  0  0  0  0  0  0
   21.0492   71.2373   -6.8333 C   0  0  2  0  0  0  0  0  0  0  0  0
   23.9791   72.9190   -7.5397 H   0  0  0  0  0  0  0  0  0  0  0  0
   21.9386   73.6055   -8.9200 H   0  0  0  0  0  0  0  0  0  0  0  0
   20.0242   70.5307   -9.3683 O   0  0  0  0  0  0  0  0  0  0  0  0
   15.8241   69.7272   -7.6488 O   0  0  0  0  0  0  0  0  0  0  0  0
   19.6915   70.8395   -7.0765 N   0  0  0  0  0  0  0  0  0  0  0  0
   17.9330   70.1322   -8.5096 N   0  0  0  0  0  0  0  0  0  0  0  0
   19.2781   70.5048   -8.3877 C   0  0  0  0  0  0  0  0  0  0  0  0
   18.7863   70.7822   -6.0238 C   0  0  0  0  0  0  0  0  0  0  0  0
   17.5073   70.4251   -6.1555 C   0  0  0  0  0  0  0  0  0  0  0  0
   16.9948   70.0608   -7.4927 C   0  0  0  0  0  0  0  0  0  0  0  0
   17.6215   69.8966   -9.4134 H   0  0  0  0  0  0  0  0  0  0  0  0
   23.2914   72.7850   -1.8654 O   0  0  0  0  0  0  0  0  0  0  0  0
   23.6493   71.4638   -1.0053 P   0  0  2  0  0  0  0  0  0  0  0  0
   25.0412   70.9613   -1.6613 O   0  0  0  0  0  0  0  0  0  0  0  0
   22.5636   70.4270   -0.9887 O   0  0  0  0  0  0  0  0  0  0  0  0
   24.0635   72.0228    0.4502 O   0  0  0  0  0  0  0  0  0  0  0  0
   25.6283   71.2962    2.0727 O   0  0  0  0  0  0  0  0  0  0  0  0
   22.5096   72.6107    4.4421 O   0  0  0  0  0  0  0  0  0  0  0  0
   21.9802   71.0616    2.0224 O   0  0  0  0  0  0  0  0  0  0  0  0
   24.9112   74.2248    4.1635 O   0  0  0  0  0  0  0  0  0  0  0  0
   23.3596   72.5989    3.2952 C   0  0  2  0  0  0  0  0  0  0  0  0
   23.2669   71.2386    2.6034 C   0  0  2  0  0  0  0  0  0  0  0  0
   24.7922   72.8602    3.7657 C   0  0  1  0  0  0  0  0  0  0  0  0
   24.3291   71.1069    1.5110 C   0  0  1  0  0  0  0  0  0  0  0  0
   25.8021   72.5861    2.6550 C   0  0  1  0  0  0  0  0  0  0  0  0
   21.5936   72.4466    4.1675 H   0  0  0  0  0  0  0  0  0  0  0  0
   21.3013   71.1442    2.7100 H   0  0  0  0  0  0  0  0  0  0  0  0
   24.2736   74.4124    4.8700 H   0  0  0  0  0  0  0  0  0  0  0  0
   27.7662   71.3299    2.9113 O   0  0  0  0  0  0  0  0  0  0  0  0
   27.7390   73.4168    3.8296 O   0  0  0  0  0  0  0  0  0  0  0  0
   27.1901   72.5221    3.2041 C   0  0  0  0  0  0  0  0  0  0  0  0
  1  4  1  0
  1 24  1  0
  1  2  1  1
  1  3  2  0
 25 28  1  0
 25 24  1  0
 25 26  1  6
 25 27  2  0
  6 11  1  0
  6 12  1  0
 29 36  1  0
 29 37  1  0
  9  7  1  6
  7 13  1  0
 10  8  1  6
  8 14  1  0
  4  5  1  0
 36 28  1  6
 33 30  1  1
 30 38  1  0
 34 31  1  6
 31 39  1  0
 35 32  1  6
 32 40  1  0
 41 43  1  0
 15 19  2  0
 42 43  2  0
 16 22  2  0
 12 17  1  1
 17 19  1  0
 17 20  1  0
 18 19  1  0
 18 22  1  0
 18 23  1  0
  9 10  1  0
  9 11  1  0
 10 12  1  0
 11  5  1  6
 33 34  1  0
 33 35  1  0
 34 36  1  0
 35 37  1  0
 37 43  1  1
 20 21  2  0
 21 22  1  0
M  CHG  3   2  -1  26  -1  41  -1
M  END
>  <COMPND>  (125) 
    udp_gluA.pdb 

>  <AUTHOR>  (125) 
    GENERATED BY OPEN BABEL 3.1.1

>  <MASTER>  (125) 
        0    0    0    0    0    0    0    0   56    0   56    0

>  <minimizedAffinity>  (125) 
-7.42215

>  <CNNscore>  (125) 
0.6297054291

>  <CNNaffinity>  (125) 
4.3903074265

>  <CNN_VS>  (125) 
2.7646005154

>  <CNNaffinity_variance>  (125) 
0.0101150684

$$$$
126
     RDKit          3D

 43 45  0  0  0  0  0  0  0  0999 V2000
   18.0863   69.9977   -2.4141 P   0  0  2  0  0  0  0  0  0  0  0  0
   17.4119   68.6181   -1.9035 O   0  0  0  0  0  0  0  0  0  0  0  0
   17.7189   71.2153   -1.6177 O   0  0  0  0  0  0  0  0  0  0  0  0
   17.7181   70.0507   -3.9888 O   0  0  0  0  0  0  0  0  0  0  0  0
   16.5566   69.3751   -4.4346 C   0  0  0  0  0  0  0  0  0  0  0  0
   16.7328   71.3440   -5.8020 O   0  0  0  0  0  0  0  0  0  0  0  0
   14.7751   70.0143   -7.6434 O   0  0  0  0  0  0  0  0  0  0  0  0
   17.1578   69.5899   -8.8999 O   0  0  0  0  0  0  0  0  0  0  0  0
   15.8267   69.4343   -6.8711 C   0  0  1  0  0  0  0  0  0  0  0  0
   17.1697   69.7466   -7.4963 C   0  0  2  0  0  0  0  0  0  0  0  0
   15.9082   70.1858   -5.5494 C   0  0  1  0  0  0  0  0  0  0  0  0
   17.3883   71.1884   -7.0707 C   0  0  2  0  0  0  0  0  0  0  0  0
   14.7038   69.5505   -8.4928 H   0  0  0  0  0  0  0  0  0  0  0  0
   17.0159   68.6553   -9.1197 H   0  0  0  0  0  0  0  0  0  0  0  0
   18.3814   73.7918   -6.6097 O   0  0  0  0  0  0  0  0  0  0  0  0
   22.7437   72.3073   -6.5099 O   0  0  0  0  0  0  0  0  0  0  0  0
   18.7791   71.5106   -6.9203 N   0  0  0  0  0  0  0  0  0  0  0  0
   20.5532   73.0501   -6.5614 N   0  0  0  0  0  0  0  0  0  0  0  0
   19.1726   72.8504   -6.6919 C   0  0  0  0  0  0  0  0  0  0  0  0
   19.7361   70.5060   -6.9977 C   0  0  0  0  0  0  0  0  0  0  0  0
   21.0485   70.7118   -6.8712 C   0  0  0  0  0  0  0  0  0  0  0  0
   21.5432   72.0833   -6.6314 C   0  0  0  0  0  0  0  0  0  0  0  0
   20.8515   73.9750   -6.4039 H   0  0  0  0  0  0  0  0  0  0  0  0
   19.6647   69.6491   -2.4215 O   0  0  0  0  0  0  0  0  0  0  0  0
   20.8829   70.2240   -1.5276 P   0  0  2  0  0  0  0  0  0  0  0  0
   22.1976   69.7238   -2.3287 O   0  0  0  0  0  0  0  0  0  0  0  0
   20.8403   69.8053   -0.0865 O   0  0  0  0  0  0  0  0  0  0  0  0
   20.8455   71.8196   -1.7626 O   0  0  0  0  0  0  0  0  0  0  0  0
   23.1148   72.4899   -1.6622 O   0  0  0  0  0  0  0  0  0  0  0  0
   21.2386   76.0247   -2.6887 O   0  0  0  0  0  0  0  0  0  0  0  0
   20.0719   74.2595   -0.6744 O   0  0  0  0  0  0  0  0  0  0  0  0
   22.7120   74.5194   -4.6923 O   0  0  0  0  0  0  0  0  0  0  0  0
   21.4252   74.6097   -2.6573 C   0  0  2  0  0  0  0  0  0  0  0  0
   21.3828   74.1199   -1.2097 C   0  0  2  0  0  0  0  0  0  0  0  0
   22.7856   74.2980   -3.2851 C   0  0  1  0  0  0  0  0  0  0  0  0
   21.8055   72.6531   -1.1158 C   0  0  1  0  0  0  0  0  0  0  0  0
   23.1931   72.8480   -3.0402 C   0  0  1  0  0  0  0  0  0  0  0  0
   20.3803   76.2466   -2.2947 H   0  0  0  0  0  0  0  0  0  0  0  0
   19.7972   75.1878   -0.7310 H   0  0  0  0  0  0  0  0  0  0  0  0
   22.4533   75.4388   -4.8618 H   0  0  0  0  0  0  0  0  0  0  0  0
   25.0183   71.3750   -3.0605 O   0  0  0  0  0  0  0  0  0  0  0  0
   25.3815   73.4919   -3.8259 O   0  0  0  0  0  0  0  0  0  0  0  0
   24.6382   72.6421   -3.3587 C   0  0  0  0  0  0  0  0  0  0  0  0
  1  4  1  0
  1 24  1  0
  1  2  1  1
  1  3  2  0
 25 28  1  0
 25 24  1  0
 25 26  1  6
 25 27  2  0
  6 11  1  0
  6 12  1  0
 29 36  1  0
 29 37  1  0
  9  7  1  6
  7 13  1  0
 10  8  1  6
  8 14  1  0
  4  5  1  0
 36 28  1  6
 33 30  1  1
 30 38  1  0
 34 31  1  6
 31 39  1  0
 35 32  1  6
 32 40  1  0
 41 43  1  0
 15 19  2  0
 42 43  2  0
 16 22  2  0
 12 17  1  1
 17 19  1  0
 17 20  1  0
 18 19  1  0
 18 22  1  0
 18 23  1  0
  9 10  1  0
  9 11  1  0
 10 12  1  0
 11  5  1  1
 33 34  1  0
 33 35  1  0
 34 36  1  0
 35 37  1  0
 37 43  1  1
 20 21  2  0
 21 22  1  0
M  CHG  3   2  -1  26  -1  41  -1
M  END
>  <COMPND>  (126) 
    udp_gluA.pdb 

>  <AUTHOR>  (126) 
    GENERATED BY OPEN BABEL 3.1.1

>  <MASTER>  (126) 
        0    0    0    0    0    0    0    0   56    0   56    0

>  <minimizedAffinity>  (126) 
-7.53181

>  <CNNscore>  (126) 
0.5566003323

>  <CNNaffinity>  (126) 
4.4444780350

>  <CNN_VS>  (126) 
2.4737980366

>  <CNNaffinity_variance>  (126) 
0.2682428658

$$$$
127
     RDKit          3D

 43 45  0  0  0  0  0  0  0  0999 V2000
   19.6979   72.8709   -3.3426 P   0  0  2  0  0  0  0  0  0  0  0  0
   19.2371   74.3136   -2.7723 O   0  0  0  0  0  0  0  0  0  0  0  0
   20.9670   72.8821   -4.1433 O   0  0  0  0  0  0  0  0  0  0  0  0
   18.3859   72.3205   -4.1130 O   0  0  0  0  0  0  0  0  0  0  0  0
   18.5312   71.8391   -5.4365 C   0  0  0  0  0  0  0  0  0  0  0  0
   18.1398   69.8873   -4.0892 O   0  0  0  0  0  0  0  0  0  0  0  0
   17.9203   68.3776   -6.6707 O   0  0  0  0  0  0  0  0  0  0  0  0
   15.3107   68.7244   -5.9596 O   0  0  0  0  0  0  0  0  0  0  0  0
   17.4984   69.7063   -6.3623 C   0  0  1  0  0  0  0  0  0  0  0  0
   16.2514   69.6743   -5.5042 C   0  0  2  0  0  0  0  0  0  0  0  0
   18.5220   70.3160   -5.4142 C   0  0  1  0  0  0  0  0  0  0  0  0
   16.8177   69.3280   -4.1377 C   0  0  2  0  0  0  0  0  0  0  0  0
   17.2818   67.9674   -7.2754 H   0  0  0  0  0  0  0  0  0  0  0  0
   14.9799   68.9899   -6.8325 H   0  0  0  0  0  0  0  0  0  0  0  0
   17.0847   68.5852   -1.4260 O   0  0  0  0  0  0  0  0  0  0  0  0
   13.7729   71.5081   -0.1099 O   0  0  0  0  0  0  0  0  0  0  0  0
   16.0379   69.8790   -3.0657 N   0  0  0  0  0  0  0  0  0  0  0  0
   15.4343   70.0410   -0.7732 N   0  0  0  0  0  0  0  0  0  0  0  0
   16.2507   69.4370   -1.7385 C   0  0  0  0  0  0  0  0  0  0  0  0
   15.0771   70.8466   -3.3332 C   0  0  0  0  0  0  0  0  0  0  0  0
   14.3066   71.4131   -2.4025 C   0  0  0  0  0  0  0  0  0  0  0  0
   14.4649   71.0067   -0.9907 C   0  0  0  0  0  0  0  0  0  0  0  0
   15.5627   69.7479    0.1579 H   0  0  0  0  0  0  0  0  0  0  0  0
   19.7493   71.9543   -2.0121 O   0  0  0  0  0  0  0  0  0  0  0  0
   20.7749   70.7868   -1.5665 P   0  0  2  0  0  0  0  0  0  0  0  0
   21.2839   70.1825   -2.9794 O   0  0  0  0  0  0  0  0  0  0  0  0
   20.1821   69.7685   -0.6361 O   0  0  0  0  0  0  0  0  0  0  0  0
   22.0546   71.5703   -0.9741 O   0  0  0  0  0  0  0  0  0  0  0  0
   23.9785   71.9070   -2.3138 O   0  0  0  0  0  0  0  0  0  0  0  0
   25.4761   72.5443    1.4834 O   0  0  0  0  0  0  0  0  0  0  0  0
   23.6193   70.3474    0.9734 O   0  0  0  0  0  0  0  0  0  0  0  0
   24.9627   74.7978   -0.2798 O   0  0  0  0  0  0  0  0  0  0  0  0
   24.4867   72.5530    0.4544 C   0  0  2  0  0  0  0  0  0  0  0  0
   24.2484   71.1254   -0.0384 C   0  0  2  0  0  0  0  0  0  0  0  0
   25.0005   73.4317   -0.6883 C   0  0  1  0  0  0  0  0  0  0  0  0
   23.3701   71.1183   -1.2904 C   0  0  1  0  0  0  0  0  0  0  0  0
   24.1439   73.2734   -1.9412 C   0  0  1  0  0  0  0  0  0  0  0  0
   25.1715   71.9919    2.2205 H   0  0  0  0  0  0  0  0  0  0  0  0
   24.1710   70.3478    1.7708 H   0  0  0  0  0  0  0  0  0  0  0  0
   25.5039   74.9121    0.5170 H   0  0  0  0  0  0  0  0  0  0  0  0
   25.2154   72.8923   -3.9926 O   0  0  0  0  0  0  0  0  0  0  0  0
   25.0165   75.0587   -3.3097 O   0  0  0  0  0  0  0  0  0  0  0  0
   24.8288   73.8647   -3.1302 C   0  0  0  0  0  0  0  0  0  0  0  0
  1  4  1  0
  1 24  1  0
  1  2  1  1
  1  3  2  0
 25 28  1  0
 25 24  1  0
 25 26  1  6
 25 27  2  0
  6 11  1  0
  6 12  1  0
 29 36  1  0
 29 37  1  0
  9  7  1  1
  7 13  1  0
 10  8  1  6
  8 14  1  0
  4  5  1  0
 36 28  1  1
 33 30  1  1
 30 38  1  0
 34 31  1  1
 31 39  1  0
 35 32  1  1
 32 40  1  0
 41 43  1  0
 15 19  2  0
 42 43  2  0
 16 22  2  0
 12 17  1  1
 17 19  1  0
 17 20  1  0
 18 19  1  0
 18 22  1  0
 18 23  1  0
  9 10  1  0
  9 11  1  0
 10 12  1  0
 11  5  1  1
 33 34  1  0
 33 35  1  0
 34 36  1  0
 35 37  1  0
 37 43  1  6
 20 21  2  0
 21 22  1  0
M  CHG  3   2  -1  26  -1  41  -1
M  END
>  <COMPND>  (127) 
    udp_gluA.pdb 

>  <AUTHOR>  (127) 
    GENERATED BY OPEN BABEL 3.1.1

>  <MASTER>  (127) 
        0    0    0    0    0    0    0    0   56    0   56    0

>  <minimizedAffinity>  (127) 
-6.49932

>  <CNNscore>  (127) 
0.5391600132

>  <CNNaffinity>  (127) 
4.2448635101

>  <CNN_VS>  (127) 
2.2886607647

>  <CNNaffinity_variance>  (127) 
0.2758711278

$$$$
128
     RDKit          3D

 43 45  0  0  0  0  0  0  0  0999 V2000
   20.8000   72.9533   -3.8120 P   0  0  2  0  0  0  0  0  0  0  0  0
   20.1531   71.4995   -3.5172 O   0  0  0  0  0  0  0  0  0  0  0  0
   22.2729   73.0574   -3.5445 O   0  0  0  0  0  0  0  0  0  0  0  0
   19.8606   73.9729   -2.9777 O   0  0  0  0  0  0  0  0  0  0  0  0
   20.3349   74.4699   -1.7398 C   0  0  0  0  0  0  0  0  0  0  0  0
   20.2397   72.4388   -0.4580 O   0  0  0  0  0  0  0  0  0  0  0  0
   18.6915   74.0116    1.5719 O   0  0  0  0  0  0  0  0  0  0  0  0
   21.1923   73.9376    2.6565 O   0  0  0  0  0  0  0  0  0  0  0  0
   19.7760   74.4278    0.7418 C   0  0  1  0  0  0  0  0  0  0  0  0
   21.0786   73.8484    1.2517 C   0  0  2  0  0  0  0  0  0  0  0  0
   19.6267   73.7377   -0.6072 C   0  0  1  0  0  0  0  0  0  0  0  0
   20.9983   72.4127    0.7615 C   0  0  2  0  0  0  0  0  0  0  0  0
   18.7653   74.4397    2.4397 H   0  0  0  0  0  0  0  0  0  0  0  0
   21.2402   74.8709    2.9184 H   0  0  0  0  0  0  0  0  0  0  0  0
   21.5589   69.6449    0.7192 O   0  0  0  0  0  0  0  0  0  0  0  0
   26.0002   70.3741   -0.2745 O   0  0  0  0  0  0  0  0  0  0  0  0
   22.2925   71.8517    0.4944 N   0  0  0  0  0  0  0  0  0  0  0  0
   23.7706   70.0108    0.2253 N   0  0  0  0  0  0  0  0  0  0  0  0
   22.4674   70.4476    0.4971 C   0  0  0  0  0  0  0  0  0  0  0  0
   23.3704   72.6885    0.2321 C   0  0  0  0  0  0  0  0  0  0  0  0
   24.6068   72.2573   -0.0253 C   0  0  0  0  0  0  0  0  0  0  0  0
   24.8748   70.8043   -0.0407 C   0  0  0  0  0  0  0  0  0  0  0  0
   23.9174   69.0372    0.2237 H   0  0  0  0  0  0  0  0  0  0  0  0
   20.3723   73.2368   -5.3448 O   0  0  0  0  0  0  0  0  0  0  0  0
   20.3782   72.2743   -6.6437 P   0  0  2  0  0  0  0  0  0  0  0  0
   21.2869   71.0208   -6.1711 O   0  0  0  0  0  0  0  0  0  0  0  0
   20.8518   72.9416   -7.9025 O   0  0  0  0  0  0  0  0  0  0  0  0
   18.8791   71.6837   -6.7223 O   0  0  0  0  0  0  0  0  0  0  0  0
   18.3784   69.7179   -5.4999 O   0  0  0  0  0  0  0  0  0  0  0  0
   15.1578   69.9482   -8.0771 O   0  0  0  0  0  0  0  0  0  0  0  0
   17.8608   70.5129   -9.0307 O   0  0  0  0  0  0  0  0  0  0  0  0
   14.8448   70.6813   -5.2815 O   0  0  0  0  0  0  0  0  0  0  0  0
   16.2082   70.4574   -7.2553 C   0  0  2  0  0  0  0  0  0  0  0  0
   17.5534   69.9397   -7.7651 C   0  0  2  0  0  0  0  0  0  0  0  0
   15.9620   69.9789   -5.8227 C   0  0  1  0  0  0  0  0  0  0  0  0
   18.6761   70.2730   -6.7816 C   0  0  1  0  0  0  0  0  0  0  0  0
   17.1758   70.2341   -4.9338 C   0  0  1  0  0  0  0  0  0  0  0  0
   15.2931   70.2395   -8.9926 H   0  0  0  0  0  0  0  0  0  0  0  0
   17.1524   70.3056   -9.6596 H   0  0  0  0  0  0  0  0  0  0  0  0
   14.0655   70.5273   -5.8381 H   0  0  0  0  0  0  0  0  0  0  0  0
   15.9909   69.9138   -2.9351 O   0  0  0  0  0  0  0  0  0  0  0  0
   17.8176   68.5946   -3.2841 O   0  0  0  0  0  0  0  0  0  0  0  0
   17.0598   69.4811   -3.6486 C   0  0  0  0  0  0  0  0  0  0  0  0
  1  4  1  0
  1 24  1  0
  1  2  1  1
  1  3  2  0
 25 28  1  0
 25 24  1  0
 25 26  1  1
 25 27  2  0
  6 11  1  0
  6 12  1  0
 29 36  1  0
 29 37  1  0
  9  7  1  1
  7 13  1  0
 10  8  1  1
  8 14  1  0
  4  5  1  0
 36 28  1  1
 33 30  1  6
 30 38  1  0
 34 31  1  6
 31 39  1  0
 35 32  1  1
 32 40  1  0
 41 43  1  0
 15 19  2  0
 42 43  2  0
 16 22  2  0
 12 17  1  6
 17 19  1  0
 17 20  1  0
 18 19  1  0
 18 22  1  0
 18 23  1  0
  9 10  1  0
  9 11  1  0
 10 12  1  0
 11  5  1  6
 33 34  1  0
 33 35  1  0
 34 36  1  0
 35 37  1  0
 37 43  1  1
 20 21  2  0
 21 22  1  0
M  CHG  3   2  -1  26  -1  41  -1
M  END
>  <COMPND>  (128) 
    udp_gluA.pdb 

>  <AUTHOR>  (128) 
    GENERATED BY OPEN BABEL 3.1.1

>  <MASTER>  (128) 
        0    0    0    0    0    0    0    0   56    0   56    0

>  <minimizedAffinity>  (128) 
-7.24274

>  <CNNscore>  (128) 
0.5380017161

>  <CNNaffinity>  (128) 
4.5168724060

>  <CNN_VS>  (128) 
2.4300851822

>  <CNNaffinity_variance>  (128) 
0.1267978847

$$$$
129
     RDKit          3D

 43 45  0  0  0  0  0  0  0  0999 V2000
   21.1465   70.9049   -2.1265 P   0  0  2  0  0  0  0  0  0  0  0  0
   20.4761   69.6520   -1.3522 O   0  0  0  0  0  0  0  0  0  0  0  0
   20.8041   72.2536   -1.5647 O   0  0  0  0  0  0  0  0  0  0  0  0
   20.7430   70.6657   -3.6750 O   0  0  0  0  0  0  0  0  0  0  0  0
   21.1028   71.6497   -4.6273 C   0  0  0  0  0  0  0  0  0  0  0  0
   19.5152   70.2863   -5.8098 O   0  0  0  0  0  0  0  0  0  0  0  0
   20.0997   72.0035   -8.1975 O   0  0  0  0  0  0  0  0  0  0  0  0
   17.7351   73.0202   -7.2968 O   0  0  0  0  0  0  0  0  0  0  0  0
   20.0280   72.3672   -6.8187 C   0  0  1  0  0  0  0  0  0  0  0  0
   18.5859   72.3956   -6.3584 C   0  0  2  0  0  0  0  0  0  0  0  0
   20.6013   71.2189   -5.9996 C   0  0  1  0  0  0  0  0  0  0  0  0
   18.2808   70.9174   -6.1858 C   0  0  2  0  0  0  0  0  0  0  0  0
   19.7389   72.7220   -8.7409 H   0  0  0  0  0  0  0  0  0  0  0  0
   17.9692   73.9592   -7.3706 H   0  0  0  0  0  0  0  0  0  0  0  0
   16.4062   68.8057   -6.2398 O   0  0  0  0  0  0  0  0  0  0  0  0
   14.5740   70.0858   -2.2089 O   0  0  0  0  0  0  0  0  0  0  0  0
   17.3025   70.6756   -5.1634 N   0  0  0  0  0  0  0  0  0  0  0  0
   15.4948   69.4459   -4.2326 N   0  0  0  0  0  0  0  0  0  0  0  0
   16.4069   69.5871   -5.2868 C   0  0  0  0  0  0  0  0  0  0  0  0
   17.2380   71.5097   -4.0539 C   0  0  0  0  0  0  0  0  0  0  0  0
   16.3631   71.3624   -3.0571 C   0  0  0  0  0  0  0  0  0  0  0  0
   15.3917   70.2501   -3.1092 C   0  0  0  0  0  0  0  0  0  0  0  0
   14.8597   68.6963   -4.2972 H   0  0  0  0  0  0  0  0  0  0  0  0
   22.7223   70.5456   -2.1020 O   0  0  0  0  0  0  0  0  0  0  0  0
   24.0255   71.4941   -1.9768 P   0  0  2  0  0  0  0  0  0  0  0  0
   23.5744   72.8456   -2.7450 O   0  0  0  0  0  0  0  0  0  0  0  0
   25.2892   70.8768   -2.5019 O   0  0  0  0  0  0  0  0  0  0  0  0
   24.0806   71.9103   -0.4192 O   0  0  0  0  0  0  0  0  0  0  0  0
   25.5886   71.1289    1.2315 O   0  0  0  0  0  0  0  0  0  0  0  0
   22.2536   72.0283    3.4979 O   0  0  0  0  0  0  0  0  0  0  0  0
   21.9732   70.6842    0.9193 O   0  0  0  0  0  0  0  0  0  0  0  0
   24.5574   73.8009    3.5247 O   0  0  0  0  0  0  0  0  0  0  0  0
   23.1702   72.1745    2.4133 C   0  0  2  0  0  0  0  0  0  0  0  0
   23.2083   70.8819    1.5976 C   0  0  2  0  0  0  0  0  0  0  0  0
   24.5517   72.4750    2.9990 C   0  0  1  0  0  0  0  0  0  0  0  0
   24.3407   70.9163    0.5704 C   0  0  1  0  0  0  0  0  0  0  0  0
   25.6425   72.3666    1.9374 C   0  0  1  0  0  0  0  0  0  0  0  0
   21.3685   71.8366    3.1498 H   0  0  0  0  0  0  0  0  0  0  0  0
   21.2501   70.6616    1.5650 H   0  0  0  0  0  0  0  0  0  0  0  0
   23.8675   73.8834    4.2015 H   0  0  0  0  0  0  0  0  0  0  0  0
   27.4609   73.5917    2.7706 O   0  0  0  0  0  0  0  0  0  0  0  0
   27.6062   71.3183    2.8683 O   0  0  0  0  0  0  0  0  0  0  0  0
   26.9961   72.3338    2.5691 C   0  0  0  0  0  0  0  0  0  0  0  0
  1  4  1  0
  1 24  1  0
  1  2  1  1
  1  3  2  0
 25 28  1  0
 25 24  1  0
 25 26  1  6
 25 27  2  0
  6 11  1  0
  6 12  1  0
 29 36  1  0
 29 37  1  0
  9  7  1  6
  7 13  1  0
 10  8  1  6
  8 14  1  0
  4  5  1  0
 36 28  1  6
 33 30  1  1
 30 38  1  0
 34 31  1  6
 31 39  1  0
 35 32  1  6
 32 40  1  0
 41 43  1  0
 15 19  2  0
 42 43  2  0
 16 22  2  0
 12 17  1  1
 17 19  1  0
 17 20  1  0
 18 19  1  0
 18 22  1  0
 18 23  1  0
  9 10  1  0
  9 11  1  0
 10 12  1  0
 11  5  1  1
 33 34  1  0
 33 35  1  0
 34 36  1  0
 35 37  1  0
 37 43  1  1
 20 21  2  0
 21 22  1  0
M  CHG  3   2  -1  26  -1  41  -1
M  END
>  <COMPND>  (129) 
    udp_gluA.pdb 

>  <AUTHOR>  (129) 
    GENERATED BY OPEN BABEL 3.1.1

>  <MASTER>  (129) 
        0    0    0    0    0    0    0    0   56    0   56    0

>  <minimizedAffinity>  (129) 
-7.65743

>  <CNNscore>  (129) 
0.5379580855

>  <CNNaffinity>  (129) 
4.3797450066

>  <CNN_VS>  (129) 
2.3561191559

>  <CNNaffinity_variance>  (129) 
0.0354819708

$$$$
130
     RDKit          3D

 43 45  0  0  0  0  0  0  0  0999 V2000
   21.4506   70.6306   -0.4039 P   0  0  2  0  0  0  0  0  0  0  0  0
   21.6083   70.1738   -1.9484 O   0  0  0  0  0  0  0  0  0  0  0  0
   21.6998   69.5484    0.6054 O   0  0  0  0  0  0  0  0  0  0  0  0
   19.9872   71.3185   -0.3496 O   0  0  0  0  0  0  0  0  0  0  0  0
   19.5630   72.0937   -1.4558 C   0  0  0  0  0  0  0  0  0  0  0  0
   17.8808   72.1114   -3.1726 O   0  0  0  0  0  0  0  0  0  0  0  0
   16.4733   70.0149   -1.5555 O   0  0  0  0  0  0  0  0  0  0  0  0
   17.6801   68.5479   -3.5120 O   0  0  0  0  0  0  0  0  0  0  0  0
   17.8731   70.2154   -1.7529 C   0  0  1  0  0  0  0  0  0  0  0  0
   18.2745   69.7752   -3.1448 C   0  0  2  0  0  0  0  0  0  0  0  0
   18.1298   71.7152   -1.8065 C   0  0  1  0  0  0  0  0  0  0  0  0
   17.7899   70.9372   -3.9950 C   0  0  2  0  0  0  0  0  0  0  0  0
   16.2847   69.0637   -1.5179 H   0  0  0  0  0  0  0  0  0  0  0  0
   18.0211   67.8402   -2.9420 H   0  0  0  0  0  0  0  0  0  0  0  0
   16.7557   71.5831   -6.5425 O   0  0  0  0  0  0  0  0  0  0  0  0
   20.9580   71.6436   -8.4348 O   0  0  0  0  0  0  0  0  0  0  0  0
   18.5913   71.1275   -5.1708 N   0  0  0  0  0  0  0  0  0  0  0  0
   18.8495   71.6116   -7.4828 N   0  0  0  0  0  0  0  0  0  0  0  0
   17.9728   71.4494   -6.4020 C   0  0  0  0  0  0  0  0  0  0  0  0
   19.9727   70.9968   -5.0972 C   0  0  0  0  0  0  0  0  0  0  0  0
   20.7954   71.1544   -6.1360 C   0  0  0  0  0  0  0  0  0  0  0  0
   20.2296   71.4912   -7.4589 C   0  0  0  0  0  0  0  0  0  0  0  0
   18.4420   71.8341   -8.3509 H   0  0  0  0  0  0  0  0  0  0  0  0
   22.4511   71.8956   -0.2957 O   0  0  0  0  0  0  0  0  0  0  0  0
   24.0628   71.9683   -0.1917 P   0  0  2  0  0  0  0  0  0  0  0  0
   24.4352   73.2487   -1.1094 O   0  0  0  0  0  0  0  0  0  0  0  0
   24.7632   70.7002   -0.5859 O   0  0  0  0  0  0  0  0  0  0  0  0
   24.3540   72.4520    1.3195 O   0  0  0  0  0  0  0  0  0  0  0  0
   26.0285   71.5009    2.6982 O   0  0  0  0  0  0  0  0  0  0  0  0
   23.4664   73.1379    5.4953 O   0  0  0  0  0  0  0  0  0  0  0  0
   22.4097   71.7211    3.1692 O   0  0  0  0  0  0  0  0  0  0  0  0
   25.9883   74.4480    4.8833 O   0  0  0  0  0  0  0  0  0  0  0  0
   24.1375   73.0467    4.2385 C   0  0  2  0  0  0  0  0  0  0  0  0
   23.7776   71.7243    3.5610 C   0  0  2  0  0  0  0  0  0  0  0  0
   25.6436   73.1180    4.5004 C   0  0  1  0  0  0  0  0  0  0  0  0
   24.6495   71.4866    2.3272 C   0  0  1  0  0  0  0  0  0  0  0  0
   26.4437   72.7459    3.2555 C   0  0  1  0  0  0  0  0  0  0  0  0
   22.5076   73.0948    5.3539 H   0  0  0  0  0  0  0  0  0  0  0  0
   21.8506   71.8717    3.9472 H   0  0  0  0  0  0  0  0  0  0  0  0
   25.4858   74.6973    5.6746 H   0  0  0  0  0  0  0  0  0  0  0  0
   28.0914   72.6970    4.9241 O   0  0  0  0  0  0  0  0  0  0  0  0
   28.7406   72.1604    2.8052 O   0  0  0  0  0  0  0  0  0  0  0  0
   27.8763   72.4982    3.6000 C   0  0  0  0  0  0  0  0  0  0  0  0
  1  4  1  0
  1 24  1  0
  1  2  1  6
  1  3  2  0
 25 28  1  0
 25 24  1  0
 25 26  1  6
 25 27  2  0
  6 11  1  0
  6 12  1  0
 29 36  1  0
 29 37  1  0
  9  7  1  6
  7 13  1  0
 10  8  1  6
  8 14  1  0
  4  5  1  0
 36 28  1  6
 33 30  1  1
 30 38  1  0
 34 31  1  6
 31 39  1  0
 35 32  1  6
 32 40  1  0
 41 43  1  0
 15 19  2  0
 42 43  2  0
 16 22  2  0
 12 17  1  6
 17 19  1  0
 17 20  1  0
 18 19  1  0
 18 22  1  0
 18 23  1  0
  9 10  1  0
  9 11  1  0
 10 12  1  0
 11  5  1  6
 33 34  1  0
 33 35  1  0
 34 36  1  0
 35 37  1  0
 37 43  1  1
 20 21  2  0
 21 22  1  0
M  CHG  3   2  -1  26  -1  41  -1
M  END
>  <COMPND>  (130) 
    udp_gluA.pdb 

>  <AUTHOR>  (130) 
    GENERATED BY OPEN BABEL 3.1.1

>  <MASTER>  (130) 
        0    0    0    0    0    0    0    0   56    0   56    0

>  <minimizedAffinity>  (130) 
-7.05683

>  <CNNscore>  (130) 
0.5237748623

>  <CNNaffinity>  (130) 
4.4375195503

>  <CNN_VS>  (130) 
2.3242611885

>  <CNNaffinity_variance>  (130) 
0.0422699973

$$$$
131
     RDKit          3D

 43 45  0  0  0  0  0  0  0  0999 V2000
   19.9445   71.6604   -1.6732 P   0  0  2  0  0  0  0  0  0  0  0  0
   19.2347   70.2895   -1.1878 O   0  0  0  0  0  0  0  0  0  0  0  0
   19.0465   72.8622   -1.7048 O   0  0  0  0  0  0  0  0  0  0  0  0
   20.6358   71.2626   -3.0810 O   0  0  0  0  0  0  0  0  0  0  0  0
   20.7696   72.2621   -4.0748 C   0  0  0  0  0  0  0  0  0  0  0  0
   19.5001   70.5942   -5.2513 O   0  0  0  0  0  0  0  0  0  0  0  0
   20.0828   72.1699   -7.7351 O   0  0  0  0  0  0  0  0  0  0  0  0
   17.5277   72.9155   -7.1422 O   0  0  0  0  0  0  0  0  0  0  0  0
   19.8290   72.6344   -6.4091 C   0  0  1  0  0  0  0  0  0  0  0  0
   18.3577   72.4979   -6.0786 C   0  0  2  0  0  0  0  0  0  0  0  0
   20.4664   71.6512   -5.4368 C   0  0  1  0  0  0  0  0  0  0  0  0
   18.2358   71.0113   -5.7906 C   0  0  2  0  0  0  0  0  0  0  0  0
   19.6850   72.7821   -8.3743 H   0  0  0  0  0  0  0  0  0  0  0  0
   17.6415   73.8685   -7.2861 H   0  0  0  0  0  0  0  0  0  0  0  0
   16.8688   68.5457   -5.6215 O   0  0  0  0  0  0  0  0  0  0  0  0
   14.2903   70.0089   -2.0924 O   0  0  0  0  0  0  0  0  0  0  0  0
   17.2028   70.7209   -4.8369 N   0  0  0  0  0  0  0  0  0  0  0  0
   15.5852   69.2771   -3.8646 N   0  0  0  0  0  0  0  0  0  0  0  0
   16.5793   69.4507   -4.8366 C   0  0  0  0  0  0  0  0  0  0  0  0
   16.8183   71.6870   -3.9151 C   0  0  0  0  0  0  0  0  0  0  0  0
   15.8691   71.5068   -2.9945 C   0  0  0  0  0  0  0  0  0  0  0  0
   15.1678   70.2080   -2.9271 C   0  0  0  0  0  0  0  0  0  0  0  0
   15.1354   68.4016   -3.8462 H   0  0  0  0  0  0  0  0  0  0  0  0
   21.2071   71.7895   -0.6721 O   0  0  0  0  0  0  0  0  0  0  0  0
   22.2291   70.6734   -0.1033 P   0  0  2  0  0  0  0  0  0  0  0  0
   23.2192   70.4060   -1.3557 O   0  0  0  0  0  0  0  0  0  0  0  0
   21.5595   69.4400    0.4299 O   0  0  0  0  0  0  0  0  0  0  0  0
   23.1372   71.4605    0.9729 O   0  0  0  0  0  0  0  0  0  0  0  0
   23.8599   73.7121    1.1056 O   0  0  0  0  0  0  0  0  0  0  0  0
   27.1328   71.6886    2.6093 O   0  0  0  0  0  0  0  0  0  0  0  0
   25.7098   70.6715    0.2695 O   0  0  0  0  0  0  0  0  0  0  0  0
   25.3408   73.1054    4.4072 O   0  0  0  0  0  0  0  0  0  0  0  0
   25.7474   71.9166    2.3514 C   0  0  2  0  0  0  0  0  0  0  0  0
   25.5080   71.9584    0.8419 C   0  0  2  0  0  0  0  0  0  0  0  0
   25.3614   73.2533    2.9887 C   0  0  1  0  0  0  0  0  0  0  0  0
   24.0868   72.4267    0.5261 C   0  0  1  0  0  0  0  0  0  0  0  0
   23.9819   73.7133    2.5262 C   0  0  1  0  0  0  0  0  0  0  0  0
   27.4009   70.8444    2.2135 H   0  0  0  0  0  0  0  0  0  0  0  0
   26.6096   70.3680    0.4662 H   0  0  0  0  0  0  0  0  0  0  0  0
   26.2130   72.8127    4.7145 H   0  0  0  0  0  0  0  0  0  0  0  0
   22.6124   75.2860    3.5998 O   0  0  0  0  0  0  0  0  0  0  0  0
   24.4907   76.0713    2.5729 O   0  0  0  0  0  0  0  0  0  0  0  0
   23.7540   75.1466    2.8812 C   0  0  0  0  0  0  0  0  0  0  0  0
  1  4  1  0
  1 24  1  0
  1  2  1  1
  1  3  2  0
 25 28  1  0
 25 24  1  0
 25 26  1  6
 25 27  2  0
  6 11  1  0
  6 12  1  0
 29 36  1  0
 29 37  1  0
  9  7  1  6
  7 13  1  0
 10  8  1  6
  8 14  1  0
  4  5  1  0
 36 28  1  1
 33 30  1  6
 30 38  1  0
 34 31  1  1
 31 39  1  0
 35 32  1  1
 32 40  1  0
 41 43  1  0
 15 19  2  0
 42 43  2  0
 16 22  2  0
 12 17  1  1
 17 19  1  0
 17 20  1  0
 18 19  1  0
 18 22  1  0
 18 23  1  0
  9 10  1  0
  9 11  1  0
 10 12  1  0
 11  5  1  1
 33 34  1  0
 33 35  1  0
 34 36  1  0
 35 37  1  0
 37 43  1  6
 20 21  2  0
 21 22  1  0
M  CHG  3   2  -1  26  -1  41  -1
M  END
>  <COMPND>  (131) 
    udp_gluA.pdb 

>  <AUTHOR>  (131) 
    GENERATED BY OPEN BABEL 3.1.1

>  <MASTER>  (131) 
        0    0    0    0    0    0    0    0   56    0   56    0

>  <minimizedAffinity>  (131) 
-6.74431

>  <CNNscore>  (131) 
0.5187336802

>  <CNNaffinity>  (131) 
4.3314642906

>  <CNN_VS>  (131) 
2.2468764782

>  <CNNaffinity_variance>  (131) 
0.0646994337

$$$$
132
     RDKit          3D

 43 45  0  0  0  0  0  0  0  0999 V2000
   23.0836   71.8786   -2.5650 P   0  0  2  0  0  0  0  0  0  0  0  0
   23.8637   71.8360   -3.9822 O   0  0  0  0  0  0  0  0  0  0  0  0
   22.8879   73.2510   -1.9905 O   0  0  0  0  0  0  0  0  0  0  0  0
   23.9065   70.8393   -1.6372 O   0  0  0  0  0  0  0  0  0  0  0  0
   24.4764   71.3144   -0.4314 C   0  0  0  0  0  0  0  0  0  0  0  0
   24.4800   70.6856    1.8886 O   0  0  0  0  0  0  0  0  0  0  0  0
   21.5190   71.1553    1.8285 O   0  0  0  0  0  0  0  0  0  0  0  0
   22.4592   73.4287    3.0048 O   0  0  0  0  0  0  0  0  0  0  0  0
   22.5596   71.8593    1.1503 C   0  0  1  0  0  0  0  0  0  0  0  0
   23.3185   72.7373    2.1226 C   0  0  2  0  0  0  0  0  0  0  0  0
   23.6208   70.8478    0.7394 C   0  0  1  0  0  0  0  0  0  0  0  0
   24.2005   71.7276    2.8370 C   0  0  2  0  0  0  0  0  0  0  0  0
   20.8291   71.7810    2.1009 H   0  0  0  0  0  0  0  0  0  0  0  0
   21.9192   74.0593    2.5021 H   0  0  0  0  0  0  0  0  0  0  0  0
   24.4692   73.3863    5.1070 O   0  0  0  0  0  0  0  0  0  0  0  0
   29.0052   73.8671    4.4451 O   0  0  0  0  0  0  0  0  0  0  0  0
   25.4401   72.2999    3.2807 N   0  0  0  0  0  0  0  0  0  0  0  0
   26.7280   73.6250    4.7746 N   0  0  0  0  0  0  0  0  0  0  0  0
   25.4664   73.1196    4.4337 C   0  0  0  0  0  0  0  0  0  0  0  0
   26.6119   72.0464    2.5781 C   0  0  0  0  0  0  0  0  0  0  0  0
   27.8069   72.5351    2.9153 C   0  0  0  0  0  0  0  0  0  0  0  0
   27.9212   73.4015    4.1068 C   0  0  0  0  0  0  0  0  0  0  0  0
   26.7711   74.2001    5.5725 H   0  0  0  0  0  0  0  0  0  0  0  0
   21.7146   71.0790   -2.8801 O   0  0  0  0  0  0  0  0  0  0  0  0
   20.4751   70.6781   -1.9227 P   0  0  2  0  0  0  0  0  0  0  0  0
   19.9273   72.1114   -1.4072 O   0  0  0  0  0  0  0  0  0  0  0  0
   20.8313   69.7203   -0.8229 O   0  0  0  0  0  0  0  0  0  0  0  0
   19.3345   70.1451   -2.9314 O   0  0  0  0  0  0  0  0  0  0  0  0
   18.3647   70.9142   -4.9505 O   0  0  0  0  0  0  0  0  0  0  0  0
   15.0532   69.5416   -2.8967 O   0  0  0  0  0  0  0  0  0  0  0  0
   17.1260   71.0669   -1.5141 O   0  0  0  0  0  0  0  0  0  0  0  0
   16.1654   67.9803   -5.0821 O   0  0  0  0  0  0  0  0  0  0  0  0
   16.4259   69.5669   -3.2878 C   0  0  2  0  0  0  0  0  0  0  0  0
   17.0360   70.9215   -2.9267 C   0  0  2  0  0  0  0  0  0  0  0  0
   16.4911   69.3399   -4.7998 C   0  0  1  0  0  0  0  0  0  0  0  0
   18.4321   71.0718   -3.5327 C   0  0  1  0  0  0  0  0  0  0  0  0
   17.8853   69.6313   -5.3473 C   0  0  1  0  0  0  0  0  0  0  0  0
   14.9869   69.6839   -1.9392 H   0  0  0  0  0  0  0  0  0  0  0  0
   16.2437   70.9724   -1.1229 H   0  0  0  0  0  0  0  0  0  0  0  0
   15.2802   67.7818   -4.7387 H   0  0  0  0  0  0  0  0  0  0  0  0
   18.9038   69.0534   -7.3796 O   0  0  0  0  0  0  0  0  0  0  0  0
   17.0177   70.3303   -7.4875 O   0  0  0  0  0  0  0  0  0  0  0  0
   17.8601   69.7289   -6.8380 C   0  0  0  0  0  0  0  0  0  0  0  0
  1  4  1  0
  1 24  1  0
  1  2  1  6
  1  3  2  0
 25 28  1  0
 25 24  1  0
 25 26  1  1
 25 27  2  0
  6 11  1  0
  6 12  1  0
 29 36  1  0
 29 37  1  0
  9  7  1  1
  7 13  1  0
 10  8  1  1
  8 14  1  0
  4  5  1  0
 36 28  1  1
 33 30  1  6
 30 38  1  0
 34 31  1  1
 31 39  1  0
 35 32  1  1
 32 40  1  0
 41 43  1  0
 15 19  2  0
 42 43  2  0
 16 22  2  0
 12 17  1  6
 17 19  1  0
 17 20  1  0
 18 19  1  0
 18 22  1  0
 18 23  1  0
  9 10  1  0
  9 11  1  0
 10 12  1  0
 11  5  1  6
 33 34  1  0
 33 35  1  0
 34 36  1  0
 35 37  1  0
 37 43  1  6
 20 21  2  0
 21 22  1  0
M  CHG  3   2  -1  26  -1  41  -1
M  END
>  <COMPND>  (132) 
    udp_gluA.pdb 

>  <AUTHOR>  (132) 
    GENERATED BY OPEN BABEL 3.1.1

>  <MASTER>  (132) 
        0    0    0    0    0    0    0    0   56    0   56    0

>  <minimizedAffinity>  (132) 
-7.30085

>  <CNNscore>  (132) 
0.5169030428

>  <CNNaffinity>  (132) 
4.2491850853

>  <CNN_VS>  (132) 
2.1964166164

>  <CNNaffinity_variance>  (132) 
0.0649466962

$$$$
133
     RDKit          3D

 43 45  0  0  0  0  0  0  0  0999 V2000
   22.4132   73.4083   -5.6679 P   0  0  2  0  0  0  0  0  0  0  0  0
   23.7660   72.6347   -6.1039 O   0  0  0  0  0  0  0  0  0  0  0  0
   22.2331   74.7652   -6.2828 O   0  0  0  0  0  0  0  0  0  0  0  0
   22.4469   73.3686   -4.0507 O   0  0  0  0  0  0  0  0  0  0  0  0
   21.3825   73.9707   -3.3373 C   0  0  0  0  0  0  0  0  0  0  0  0
   21.2097   71.7754   -2.3737 O   0  0  0  0  0  0  0  0  0  0  0  0
   18.3797   72.4986   -1.6957 O   0  0  0  0  0  0  0  0  0  0  0  0
   19.6696   72.8472    0.6814 O   0  0  0  0  0  0  0  0  0  0  0  0
   19.5464   73.3216   -1.7001 C   0  0  1  0  0  0  0  0  0  0  0  0
   20.4193   72.9999   -0.5056 C   0  0  2  0  0  0  0  0  0  0  0  0
   20.4253   72.8843   -2.8640 C   0  0  1  0  0  0  0  0  0  0  0  0
   21.0902   71.7092   -0.9437 C   0  0  2  0  0  0  0  0  0  0  0  0
   17.8026   72.7593   -0.9604 H   0  0  0  0  0  0  0  0  0  0  0  0
   19.2630   73.6959    0.9184 H   0  0  0  0  0  0  0  0  0  0  0  0
   21.8888   69.4974    0.6204 O   0  0  0  0  0  0  0  0  0  0  0  0
   26.1316   71.2038    1.1956 O   0  0  0  0  0  0  0  0  0  0  0  0
   22.3977   71.5499   -0.3728 N   0  0  0  0  0  0  0  0  0  0  0  0
   24.0009   70.3499    0.9062 N   0  0  0  0  0  0  0  0  0  0  0  0
   22.6965   70.4011    0.3974 C   0  0  0  0  0  0  0  0  0  0  0  0
   23.3677   72.5234   -0.5788 C   0  0  0  0  0  0  0  0  0  0  0  0
   24.6068   72.4605   -0.0874 C   0  0  0  0  0  0  0  0  0  0  0  0
   25.0000   71.2933    0.7290 C   0  0  0  0  0  0  0  0  0  0  0  0
   24.2318   69.5604    1.4473 H   0  0  0  0  0  0  0  0  0  0  0  0
   21.2527   72.3440   -6.0334 O   0  0  0  0  0  0  0  0  0  0  0  0
   20.8361   71.6702   -7.4426 P   0  0  2  0  0  0  0  0  0  0  0  0
   21.5855   70.2360   -7.4027 O   0  0  0  0  0  0  0  0  0  0  0  0
   21.1641   72.5061   -8.6458 O   0  0  0  0  0  0  0  0  0  0  0  0
   19.2706   71.3162   -7.2800 O   0  0  0  0  0  0  0  0  0  0  0  0
   18.6600   69.5714   -5.7994 O   0  0  0  0  0  0  0  0  0  0  0  0
   15.1922   70.0677   -7.9895 O   0  0  0  0  0  0  0  0  0  0  0  0
   17.7974   70.1148   -9.3104 O   0  0  0  0  0  0  0  0  0  0  0  0
   15.3617   71.0904   -5.2735 O   0  0  0  0  0  0  0  0  0  0  0  0
   16.4045   70.4788   -7.3576 C   0  0  2  0  0  0  0  0  0  0  0  0
   17.5819   69.7135   -7.9624 C   0  0  2  0  0  0  0  0  0  0  0  0
   16.2847   70.1762   -5.8623 C   0  0  1  0  0  0  0  0  0  0  0  0
   18.8613   69.9550   -7.1602 C   0  0  1  0  0  0  0  0  0  0  0  0
   17.6298   70.3181   -5.1557 C   0  0  1  0  0  0  0  0  0  0  0  0
   15.2452   70.2502   -8.9409 H   0  0  0  0  0  0  0  0  0  0  0  0
   16.9895   69.9646   -9.8252 H   0  0  0  0  0  0  0  0  0  0  0  0
   14.5015   71.0103   -5.7144 H   0  0  0  0  0  0  0  0  0  0  0  0
   16.4571   68.9645   -3.6411 O   0  0  0  0  0  0  0  0  0  0  0  0
   18.4272   69.8615   -2.9248 O   0  0  0  0  0  0  0  0  0  0  0  0
   17.5787   69.7118   -3.7911 C   0  0  0  0  0  0  0  0  0  0  0  0
  1  4  1  0
  1 24  1  0
  1  2  1  6
  1  3  2  0
 25 28  1  0
 25 24  1  0
 25 26  1  6
 25 27  2  0
  6 11  1  0
  6 12  1  0
 29 36  1  0
 29 37  1  0
  9  7  1  1
  7 13  1  0
 10  8  1  1
  8 14  1  0
  4  5  1  0
 36 28  1  1
 33 30  1  6
 30 38  1  0
 34 31  1  6
 31 39  1  0
 35 32  1  1
 32 40  1  0
 41 43  1  0
 15 19  2  0
 42 43  2  0
 16 22  2  0
 12 17  1  1
 17 19  1  0
 17 20  1  0
 18 19  1  0
 18 22  1  0
 18 23  1  0
  9 10  1  0
  9 11  1  0
 10 12  1  0
 11  5  1  1
 33 34  1  0
 33 35  1  0
 34 36  1  0
 35 37  1  0
 37 43  1  1
 20 21  2  0
 21 22  1  0
M  CHG  3   2  -1  26  -1  41  -1
M  END
>  <COMPND>  (133) 
    udp_gluA.pdb 

>  <AUTHOR>  (133) 
    GENERATED BY OPEN BABEL 3.1.1

>  <MASTER>  (133) 
        0    0    0    0    0    0    0    0   56    0   56    0

>  <minimizedAffinity>  (133) 
-7.98281

>  <CNNscore>  (133) 
0.4830033779

>  <CNNaffinity>  (133) 
4.4766297340

>  <CNN_VS>  (133) 
2.1622273922

>  <CNNaffinity_variance>  (133) 
0.1445643604

$$$$
134
     RDKit          3D

 43 45  0  0  0  0  0  0  0  0999 V2000
   19.1474   71.0242   -1.7717 P   0  0  2  0  0  0  0  0  0  0  0  0
   19.1894   69.4074   -1.8291 O   0  0  0  0  0  0  0  0  0  0  0  0
   17.8140   71.6109   -1.4116 O   0  0  0  0  0  0  0  0  0  0  0  0
   19.7525   71.4796   -3.2015 O   0  0  0  0  0  0  0  0  0  0  0  0
   20.5201   72.6676   -3.2633 C   0  0  0  0  0  0  0  0  0  0  0  0
   21.1465   71.4395   -5.2323 O   0  0  0  0  0  0  0  0  0  0  0  0
   22.8830   73.7862   -5.9172 O   0  0  0  0  0  0  0  0  0  0  0  0
   20.7048   74.1712   -7.5120 O   0  0  0  0  0  0  0  0  0  0  0  0
   21.6012   73.7635   -5.2888 C   0  0  1  0  0  0  0  0  0  0  0  0
   20.5236   73.4570   -6.3071 C   0  0  2  0  0  0  0  0  0  0  0  0
   21.5428   72.5397   -4.3849 C   0  0  1  0  0  0  0  0  0  0  0  0
   20.6781   71.9566   -6.4879 C   0  0  2  0  0  0  0  0  0  0  0  0
   22.9441   74.5597   -6.5000 H   0  0  0  0  0  0  0  0  0  0  0  0
   20.5962   75.1210   -7.3442 H   0  0  0  0  0  0  0  0  0  0  0  0
   20.4773   69.4240   -7.7217 O   0  0  0  0  0  0  0  0  0  0  0  0
   15.8712   69.5912   -7.7314 O   0  0  0  0  0  0  0  0  0  0  0  0
   19.4388   71.3146   -6.8241 N   0  0  0  0  0  0  0  0  0  0  0  0
   18.1834   69.5101   -7.7263 N   0  0  0  0  0  0  0  0  0  0  0  0
   19.4482   70.0418   -7.4422 C   0  0  0  0  0  0  0  0  0  0  0  0
   18.2327   71.9435   -6.5404 C   0  0  0  0  0  0  0  0  0  0  0  0
   17.0350   71.4241   -6.8170 C   0  0  0  0  0  0  0  0  0  0  0  0
   16.9565   70.0979   -7.4637 C   0  0  0  0  0  0  0  0  0  0  0  0
   18.1644   68.6258   -8.1585 H   0  0  0  0  0  0  0  0  0  0  0  0
   20.3406   71.3818   -0.7416 O   0  0  0  0  0  0  0  0  0  0  0  0
   21.7451   70.6381   -0.4447 P   0  0  2  0  0  0  0  0  0  0  0  0
   22.2073   70.1228   -1.9080 O   0  0  0  0  0  0  0  0  0  0  0  0
   21.6620   69.5571    0.5938 O   0  0  0  0  0  0  0  0  0  0  0  0
   22.7724   71.8301   -0.0896 O   0  0  0  0  0  0  0  0  0  0  0  0
   24.5445   72.0460   -1.6459 O   0  0  0  0  0  0  0  0  0  0  0  0
   25.7184   74.6575    1.3324 O   0  0  0  0  0  0  0  0  0  0  0  0
   24.5831   72.0525    2.0100 O   0  0  0  0  0  0  0  0  0  0  0  0
   24.6138   75.6813   -1.1541 O   0  0  0  0  0  0  0  0  0  0  0  0
   24.7893   73.9495    0.5117 C   0  0  2  0  0  0  0  0  0  0  0  0
   24.9819   72.4447    0.7017 C   0  0  2  0  0  0  0  0  0  0  0  0
   25.0514   74.3400   -0.9445 C   0  0  1  0  0  0  0  0  0  0  0  0
   24.1684   71.6552   -0.3248 C   0  0  1  0  0  0  0  0  0  0  0  0
   24.3022   73.4261   -1.9099 C   0  0  1  0  0  0  0  0  0  0  0  0
   25.5708   74.4251    2.2627 H   0  0  0  0  0  0  0  0  0  0  0  0
   25.0951   72.5498    2.6664 H   0  0  0  0  0  0  0  0  0  0  0  0
   25.0830   76.2733   -0.5456 H   0  0  0  0  0  0  0  0  0  0  0  0
   24.9791   72.3900   -3.9023 O   0  0  0  0  0  0  0  0  0  0  0  0
   25.0456   74.6683   -3.8401 O   0  0  0  0  0  0  0  0  0  0  0  0
   24.8117   73.5954   -3.3042 C   0  0  0  0  0  0  0  0  0  0  0  0
  1  4  1  0
  1 24  1  0
  1  2  1  6
  1  3  2  0
 25 28  1  0
 25 24  1  0
 25 26  1  6
 25 27  2  0
  6 11  1  0
  6 12  1  0
 29 36  1  0
 29 37  1  0
  9  7  1  6
  7 13  1  0
 10  8  1  6
  8 14  1  0
  4  5  1  0
 36 28  1  1
 33 30  1  1
 30 38  1  0
 34 31  1  1
 31 39  1  0
 35 32  1  1
 32 40  1  0
 41 43  1  0
 15 19  2  0
 42 43  2  0
 16 22  2  0
 12 17  1  1
 17 19  1  0
 17 20  1  0
 18 19  1  0
 18 22  1  0
 18 23  1  0
  9 10  1  0
  9 11  1  0
 10 12  1  0
 11  5  1  1
 33 34  1  0
 33 35  1  0
 34 36  1  0
 35 37  1  0
 37 43  1  6
 20 21  2  0
 21 22  1  0
M  CHG  3   2  -1  26  -1  41  -1
M  END
>  <COMPND>  (134) 
    udp_gluA.pdb 

>  <AUTHOR>  (134) 
    GENERATED BY OPEN BABEL 3.1.1

>  <MASTER>  (134) 
        0    0    0    0    0    0    0    0   56    0   56    0

>  <minimizedAffinity>  (134) 
-6.95373

>  <CNNscore>  (134) 
0.4769830704

>  <CNNaffinity>  (134) 
4.1734843254

>  <CNN_VS>  (134) 
1.9906814098

>  <CNNaffinity_variance>  (134) 
0.1534084976

$$$$
135
     RDKit          3D

 43 45  0  0  0  0  0  0  0  0999 V2000
   17.4292   69.7319   -2.8080 P   0  0  2  0  0  0  0  0  0  0  0  0
   17.3230   68.6099   -1.6467 O   0  0  0  0  0  0  0  0  0  0  0  0
   16.4580   70.8689   -2.6813 O   0  0  0  0  0  0  0  0  0  0  0  0
   17.3386   68.8802   -4.1807 O   0  0  0  0  0  0  0  0  0  0  0  0
   16.1389   68.9321   -4.9306 C   0  0  0  0  0  0  0  0  0  0  0  0
   15.3272   69.9988   -6.9259 O   0  0  0  0  0  0  0  0  0  0  0  0
   18.1949   70.1486   -7.7892 O   0  0  0  0  0  0  0  0  0  0  0  0
   17.7097   72.6777   -6.8925 O   0  0  0  0  0  0  0  0  0  0  0  0
   17.6366   70.2823   -6.4819 C   0  0  1  0  0  0  0  0  0  0  0  0
   16.9490   71.6237   -6.3403 C   0  0  2  0  0  0  0  0  0  0  0  0
   16.4687   69.3120   -6.3684 C   0  0  1  0  0  0  0  0  0  0  0  0
   15.6458   71.3903   -7.0854 C   0  0  2  0  0  0  0  0  0  0  0  0
   18.9432   70.7589   -7.8855 H   0  0  0  0  0  0  0  0  0  0  0  0
   18.5287   72.7867   -6.3832 H   0  0  0  0  0  0  0  0  0  0  0  0
   13.9296   72.9882   -8.6595 O   0  0  0  0  0  0  0  0  0  0  0  0
   11.5389   74.3755   -4.9711 O   0  0  0  0  0  0  0  0  0  0  0  0
   14.5666   72.1793   -6.5622 N   0  0  0  0  0  0  0  0  0  0  0  0
   12.7412   73.6784   -6.8209 N   0  0  0  0  0  0  0  0  0  0  0  0
   13.7640   72.9470   -7.4389 C   0  0  0  0  0  0  0  0  0  0  0  0
   14.3113   72.1864   -5.1963 C   0  0  0  0  0  0  0  0  0  0  0  0
   13.3327   72.8886   -4.6219 C   0  0  0  0  0  0  0  0  0  0  0  0
   12.4488   73.7179   -5.4672 C   0  0  0  0  0  0  0  0  0  0  0  0
   12.1704   74.2222   -7.4106 H   0  0  0  0  0  0  0  0  0  0  0  0
   18.9852   70.1661   -2.7518 O   0  0  0  0  0  0  0  0  0  0  0  0
   19.8199   70.9814   -1.6327 P   0  0  2  0  0  0  0  0  0  0  0  0
   20.4129   69.8093   -0.6867 O   0  0  0  0  0  0  0  0  0  0  0  0
   19.0189   72.0199   -0.9021 O   0  0  0  0  0  0  0  0  0  0  0  0
   21.1045   71.5582   -2.4199 O   0  0  0  0  0  0  0  0  0  0  0  0
   21.3970   70.8123   -4.6486 O   0  0  0  0  0  0  0  0  0  0  0  0
   25.0416   72.5970   -3.8742 O   0  0  0  0  0  0  0  0  0  0  0  0
   23.7532   70.9243   -1.8552 O   0  0  0  0  0  0  0  0  0  0  0  0
   23.0802   73.9480   -5.5411 O   0  0  0  0  0  0  0  0  0  0  0  0
   23.6298   72.4159   -3.7647 C   0  0  2  0  0  0  0  0  0  0  0  0
   23.3341   71.0216   -3.2116 C   0  0  2  0  0  0  0  0  0  0  0  0
   23.0230   72.5745   -5.1605 C   0  0  1  0  0  0  0  0  0  0  0  0
   21.8402   70.7054   -3.2952 C   0  0  1  0  0  0  0  0  0  0  0  0
   21.5664   72.1206   -5.1896 C   0  0  1  0  0  0  0  0  0  0  0  0
   25.4491   72.5006   -2.9990 H   0  0  0  0  0  0  0  0  0  0  0  0
   24.7002   71.1239   -1.7948 H   0  0  0  0  0  0  0  0  0  0  0  0
   24.0020   74.2494   -5.5265 H   0  0  0  0  0  0  0  0  0  0  0  0
   21.1192   70.6644   -6.9732 O   0  0  0  0  0  0  0  0  0  0  0  0
   20.7126   72.8820   -7.3139 O   0  0  0  0  0  0  0  0  0  0  0  0
   21.0867   71.9666   -6.5962 C   0  0  0  0  0  0  0  0  0  0  0  0
  1  4  1  0
  1 24  1  0
  1  2  1  1
  1  3  2  0
 25 28  1  0
 25 24  1  0
 25 26  1  1
 25 27  2  0
  6 11  1  0
  6 12  1  0
 29 36  1  0
 29 37  1  0
  9  7  1  6
  7 13  1  0
 10  8  1  6
  8 14  1  0
  4  5  1  0
 36 28  1  1
 33 30  1  6
 30 38  1  0
 34 31  1  1
 31 39  1  0
 35 32  1  1
 32 40  1  0
 41 43  1  0
 15 19  2  0
 42 43  2  0
 16 22  2  0
 12 17  1  1
 17 19  1  0
 17 20  1  0
 18 19  1  0
 18 22  1  0
 18 23  1  0
  9 10  1  0
  9 11  1  0
 10 12  1  0
 11  5  1  1
 33 34  1  0
 33 35  1  0
 34 36  1  0
 35 37  1  0
 37 43  1  6
 20 21  2  0
 21 22  1  0
M  CHG  3   2  -1  26  -1  41  -1
M  END
>  <COMPND>  (135) 
    udp_gluA.pdb 

>  <AUTHOR>  (135) 
    GENERATED BY OPEN BABEL 3.1.1

>  <MASTER>  (135) 
        0    0    0    0    0    0    0    0   56    0   56    0

>  <minimizedAffinity>  (135) 
-7.30724

>  <CNNscore>  (135) 
0.4752520025

>  <CNNaffinity>  (135) 
4.3682694435

>  <CNN_VS>  (135) 
2.0760288239

>  <CNNaffinity_variance>  (135) 
0.0483871773

$$$$
136
     RDKit          3D

 43 45  0  0  0  0  0  0  0  0999 V2000
   16.9077   69.7883   -2.7330 P   0  0  2  0  0  0  0  0  0  0  0  0
   17.3745   68.6994   -1.6306 O   0  0  0  0  0  0  0  0  0  0  0  0
   15.6921   70.5855   -2.3609 O   0  0  0  0  0  0  0  0  0  0  0  0
   16.7947   68.9321   -4.1012 O   0  0  0  0  0  0  0  0  0  0  0  0
   17.7865   69.1121   -5.0954 C   0  0  0  0  0  0  0  0  0  0  0  0
   17.3990   71.2367   -6.1507 O   0  0  0  0  0  0  0  0  0  0  0  0
   16.8496   69.6825   -8.6556 O   0  0  0  0  0  0  0  0  0  0  0  0
   19.3995   70.5652   -9.0492 O   0  0  0  0  0  0  0  0  0  0  0  0
   17.7980   69.4224   -7.6205 C   0  0  1  0  0  0  0  0  0  0  0  0
   18.9595   70.3886   -7.7189 C   0  0  2  0  0  0  0  0  0  0  0  0
   17.1655   69.8188   -6.2934 C   0  0  1  0  0  0  0  0  0  0  0  0
   18.3670   71.6555   -7.1259 C   0  0  2  0  0  0  0  0  0  0  0  0
   17.2313   69.4371   -9.5134 H   0  0  0  0  0  0  0  0  0  0  0  0
   19.7683   69.7310   -9.3812 H   0  0  0  0  0  0  0  0  0  0  0  0
   20.7776   70.6759   -6.0278 O   0  0  0  0  0  0  0  0  0  0  0  0
   22.0853   74.8840   -4.6768 O   0  0  0  0  0  0  0  0  0  0  0  0
   19.3554   72.4731   -6.4814 N   0  0  0  0  0  0  0  0  0  0  0  0
   21.4262   72.7726   -5.3551 N   0  0  0  0  0  0  0  0  0  0  0  0
   20.5319   71.8819   -5.9633 C   0  0  0  0  0  0  0  0  0  0  0  0
   19.1557   73.8437   -6.3690 C   0  0  0  0  0  0  0  0  0  0  0  0
   20.0173   74.6799   -5.7866 C   0  0  0  0  0  0  0  0  0  0  0  0
   21.2712   74.1426   -5.2187 C   0  0  0  0  0  0  0  0  0  0  0  0
   22.2516   72.3839   -4.9851 H   0  0  0  0  0  0  0  0  0  0  0  0
   18.2446   70.6671   -2.9637 O   0  0  0  0  0  0  0  0  0  0  0  0
   18.6617   72.1293   -2.4143 P   0  0  2  0  0  0  0  0  0  0  0  0
   18.1039   72.1263   -0.8947 O   0  0  0  0  0  0  0  0  0  0  0  0
   18.1614   73.2685   -3.2544 O   0  0  0  0  0  0  0  0  0  0  0  0
   20.2661   72.0659   -2.2592 O   0  0  0  0  0  0  0  0  0  0  0  0
   22.2136   71.0529   -3.1484 O   0  0  0  0  0  0  0  0  0  0  0  0
   22.4499   69.9775    0.8335 O   0  0  0  0  0  0  0  0  0  0  0  0
   19.8933   69.8827   -0.5768 O   0  0  0  0  0  0  0  0  0  0  0  0
   24.1613   72.0810   -0.2139 O   0  0  0  0  0  0  0  0  0  0  0  0
   22.1124   70.8148   -0.2724 C   0  0  2  0  0  0  0  0  0  0  0  0
   21.1562   70.0705   -1.2047 C   0  0  2  0  0  0  0  0  0  0  0  0
   23.4060   71.1693   -1.0092 C   0  0  1  0  0  0  0  0  0  0  0  0
   20.9538   70.8415   -2.5098 C   0  0  1  0  0  0  0  0  0  0  0  0
   23.1178   71.8218   -2.3582 C   0  0  1  0  0  0  0  0  0  0  0  0
   21.6432   69.7392    1.3169 H   0  0  0  0  0  0  0  0  0  0  0  0
   20.0142   69.3943    0.2522 H   0  0  0  0  0  0  0  0  0  0  0  0
   24.3513   71.6779    0.6476 H   0  0  0  0  0  0  0  0  0  0  0  0
   25.2636   70.9635   -2.7583 O   0  0  0  0  0  0  0  0  0  0  0  0
   24.5187   72.5980   -4.1628 O   0  0  0  0  0  0  0  0  0  0  0  0
   24.3501   71.8620   -3.2021 C   0  0  0  0  0  0  0  0  0  0  0  0
  1  4  1  0
  1 24  1  0
  1  2  1  1
  1  3  2  0
 25 28  1  0
 25 24  1  0
 25 26  1  1
 25 27  2  0
  6 11  1  0
  6 12  1  0
 29 36  1  0
 29 37  1  0
  9  7  1  6
  7 13  1  0
 10  8  1  6
  8 14  1  0
  4  5  1  0
 36 28  1  1
 33 30  1  1
 30 38  1  0
 34 31  1  1
 31 39  1  0
 35 32  1  1
 32 40  1  0
 41 43  1  0
 15 19  2  0
 42 43  2  0
 16 22  2  0
 12 17  1  1
 17 19  1  0
 17 20  1  0
 18 19  1  0
 18 22  1  0
 18 23  1  0
  9 10  1  0
  9 11  1  0
 10 12  1  0
 11  5  1  1
 33 34  1  0
 33 35  1  0
 34 36  1  0
 35 37  1  0
 37 43  1  6
 20 21  2  0
 21 22  1  0
M  CHG  3   2  -1  26  -1  41  -1
M  END
>  <COMPND>  (136) 
    udp_gluA.pdb 

>  <AUTHOR>  (136) 
    GENERATED BY OPEN BABEL 3.1.1

>  <MASTER>  (136) 
        0    0    0    0    0    0    0    0   56    0   56    0

>  <minimizedAffinity>  (136) 
-7.66384

>  <CNNscore>  (136) 
0.4748463929

>  <CNNaffinity>  (136) 
4.2420072556

>  <CNN_VS>  (136) 
2.0143017769

>  <CNNaffinity_variance>  (136) 
0.7696260214

$$$$
137
     RDKit          3D

 43 45  0  0  0  0  0  0  0  0999 V2000
   18.7490   73.1622   -3.3961 P   0  0  2  0  0  0  0  0  0  0  0  0
   18.8978   74.2101   -2.1719 O   0  0  0  0  0  0  0  0  0  0  0  0
   17.3867   73.1097   -4.0231 O   0  0  0  0  0  0  0  0  0  0  0  0
   19.2942   71.7678   -2.7824 O   0  0  0  0  0  0  0  0  0  0  0  0
   19.5192   71.6854   -1.3870 C   0  0  0  0  0  0  0  0  0  0  0  0
   21.5919   70.7047   -2.1079 O   0  0  0  0  0  0  0  0  0  0  0  0
   21.7392   69.4658    0.6188 O   0  0  0  0  0  0  0  0  0  0  0  0
   23.4441   71.5831    0.8335 O   0  0  0  0  0  0  0  0  0  0  0  0
   21.2408   70.7473    0.2342 C   0  0  1  0  0  0  0  0  0  0  0  0
   22.3881   71.6772   -0.0995 C   0  0  2  0  0  0  0  0  0  0  0  0
   20.5497   70.5973   -1.1141 C   0  0  1  0  0  0  0  0  0  0  0  0
   22.7878   71.2002   -1.4853 C   0  0  2  0  0  0  0  0  0  0  0  0
   22.1851   69.5364    1.4778 H   0  0  0  0  0  0  0  0  0  0  0  0
   23.1397   71.8986    1.6993 H   0  0  0  0  0  0  0  0  0  0  0  0
   25.1630   70.9884   -2.9986 O   0  0  0  0  0  0  0  0  0  0  0  0
   24.7796   75.3134   -4.5451 O   0  0  0  0  0  0  0  0  0  0  0  0
   23.3315   72.2555   -2.2925 N   0  0  0  0  0  0  0  0  0  0  0  0
   24.9703   73.1430   -3.7666 N   0  0  0  0  0  0  0  0  0  0  0  0
   24.5308   72.0462   -3.0136 C   0  0  0  0  0  0  0  0  0  0  0  0
   22.6783   73.4798   -2.3653 C   0  0  0  0  0  0  0  0  0  0  0  0
   23.1094   74.5159   -3.0875 C   0  0  0  0  0  0  0  0  0  0  0  0
   24.3555   74.3803   -3.8699 C   0  0  0  0  0  0  0  0  0  0  0  0
   25.8043   73.0219   -4.2756 H   0  0  0  0  0  0  0  0  0  0  0  0
   19.9357   73.6060   -4.3999 O   0  0  0  0  0  0  0  0  0  0  0  0
   20.3821   73.0218   -5.8397 P   0  0  2  0  0  0  0  0  0  0  0  0
   21.6542   72.0871   -5.4814 O   0  0  0  0  0  0  0  0  0  0  0  0
   20.6602   74.0753   -6.8725 O   0  0  0  0  0  0  0  0  0  0  0  0
   19.2140   71.9836   -6.2401 O   0  0  0  0  0  0  0  0  0  0  0  0
   18.8109   69.7718   -5.4955 O   0  0  0  0  0  0  0  0  0  0  0  0
   17.4522   69.6072   -9.3935 O   0  0  0  0  0  0  0  0  0  0  0  0
   19.9295   71.0141   -8.7469 O   0  0  0  0  0  0  0  0  0  0  0  0
   15.5578   69.7292   -7.1919 O   0  0  0  0  0  0  0  0  0  0  0  0
   17.7214   70.2189   -8.1320 C   0  0  2  0  0  0  0  0  0  0  0  0
   19.2228   70.1670   -7.8482 C   0  0  2  0  0  0  0  0  0  0  0  0
   16.9498   69.4482   -7.0585 C   0  0  1  0  0  0  0  0  0  0  0  0
   19.5236   70.6020   -6.4132 C   0  0  1  0  0  0  0  0  0  0  0  0
   17.3962   69.8494   -5.6555 C   0  0  1  0  0  0  0  0  0  0  0  0
   17.9322   70.0803  -10.0915 H   0  0  0  0  0  0  0  0  0  0  0  0
   19.7430   70.7439   -9.6594 H   0  0  0  0  0  0  0  0  0  0  0  0
   15.2610   69.4786   -8.0806 H   0  0  0  0  0  0  0  0  0  0  0  0
   16.7492   67.6444   -5.1853 O   0  0  0  0  0  0  0  0  0  0  0  0
   16.6371   69.1484   -3.4752 O   0  0  0  0  0  0  0  0  0  0  0  0
   16.8898   68.8779   -4.6396 C   0  0  0  0  0  0  0  0  0  0  0  0
  1  4  1  0
  1 24  1  0
  1  2  1  1
  1  3  2  0
 25 28  1  0
 25 24  1  0
 25 26  1  1
 25 27  2  0
  6 11  1  0
  6 12  1  0
 29 36  1  0
 29 37  1  0
  9  7  1  6
  7 13  1  0
 10  8  1  1
  8 14  1  0
  4  5  1  0
 36 28  1  6
 33 30  1  6
 30 38  1  0
 34 31  1  6
 31 39  1  0
 35 32  1  1
 32 40  1  0
 41 43  1  0
 15 19  2  0
 42 43  2  0
 16 22  2  0
 12 17  1  6
 17 19  1  0
 17 20  1  0
 18 19  1  0
 18 22  1  0
 18 23  1  0
  9 10  1  0
  9 11  1  0
 10 12  1  0
 11  5  1  6
 33 34  1  0
 33 35  1  0
 34 36  1  0
 35 37  1  0
 37 43  1  1
 20 21  2  0
 21 22  1  0
M  CHG  3   2  -1  26  -1  41  -1
M  END
>  <COMPND>  (137) 
    udp_gluA.pdb 

>  <AUTHOR>  (137) 
    GENERATED BY OPEN BABEL 3.1.1

>  <MASTER>  (137) 
        0    0    0    0    0    0    0    0   56    0   56    0

>  <minimizedAffinity>  (137) 
-7.69382

>  <CNNscore>  (137) 
0.4363193810

>  <CNNaffinity>  (137) 
4.1367807388

>  <CNN_VS>  (137) 
1.8049576283

>  <CNNaffinity_variance>  (137) 
0.6069869399

$$$$
138
     RDKit          3D

 43 45  0  0  0  0  0  0  0  0999 V2000
   21.5641   73.2345   -3.9099 P   0  0  2  0  0  0  0  0  0  0  0  0
   20.5039   72.6609   -2.8301 O   0  0  0  0  0  0  0  0  0  0  0  0
   21.5487   74.7250   -4.0829 O   0  0  0  0  0  0  0  0  0  0  0  0
   21.2664   72.3692   -5.2442 O   0  0  0  0  0  0  0  0  0  0  0  0
   19.9267   72.2463   -5.6854 C   0  0  0  0  0  0  0  0  0  0  0  0
   19.2109   70.2411   -4.5699 O   0  0  0  0  0  0  0  0  0  0  0  0
   18.5188   69.1951   -7.2935 O   0  0  0  0  0  0  0  0  0  0  0  0
   16.0910   69.9574   -6.3134 O   0  0  0  0  0  0  0  0  0  0  0  0
   18.4091   70.5231   -6.7808 C   0  0  1  0  0  0  0  0  0  0  0  0
   17.2383   70.6213   -5.8260 C   0  0  2  0  0  0  0  0  0  0  0  0
   19.5946   70.7697   -5.8578 C   0  0  1  0  0  0  0  0  0  0  0  0
   17.7995   69.9742   -4.5713 C   0  0  2  0  0  0  0  0  0  0  0  0
   17.7720   69.0143   -7.8863 H   0  0  0  0  0  0  0  0  0  0  0  0
   15.7720   70.4073   -7.1120 H   0  0  0  0  0  0  0  0  0  0  0  0
   17.5934   68.5674   -2.1310 O   0  0  0  0  0  0  0  0  0  0  0  0
   15.5632   72.1353   -0.0352 O   0  0  0  0  0  0  0  0  0  0  0  0
   17.2215   70.5116   -3.3721 N   0  0  0  0  0  0  0  0  0  0  0  0
   16.5815   70.3454   -1.0898 N   0  0  0  0  0  0  0  0  0  0  0  0
   17.1665   69.7216   -2.1995 C   0  0  0  0  0  0  0  0  0  0  0  0
   16.7187   71.8070   -3.3647 C   0  0  0  0  0  0  0  0  0  0  0  0
   16.1640   72.3881   -2.2991 C   0  0  0  0  0  0  0  0  0  0  0  0
   16.0670   71.6306   -1.0340 C   0  0  0  0  0  0  0  0  0  0  0  0
   16.5301   69.8144   -0.2623 H   0  0  0  0  0  0  0  0  0  0  0  0
   22.9716   72.6313   -3.3921 O   0  0  0  0  0  0  0  0  0  0  0  0
   23.3371   71.1959   -2.7443 P   0  0  2  0  0  0  0  0  0  0  0  0
   24.9496   71.1327   -2.8711 O   0  0  0  0  0  0  0  0  0  0  0  0
   22.6214   70.0359   -3.3738 O   0  0  0  0  0  0  0  0  0  0  0  0
   23.0596   71.3767   -1.1655 O   0  0  0  0  0  0  0  0  0  0  0  0
   22.6682   73.4255   -0.0436 O   0  0  0  0  0  0  0  0  0  0  0  0
   24.2305   71.0925    2.9870 O   0  0  0  0  0  0  0  0  0  0  0  0
   25.3905   71.0104    0.3071 O   0  0  0  0  0  0  0  0  0  0  0  0
   21.3773   71.6413    2.8911 O   0  0  0  0  0  0  0  0  0  0  0  0
   23.5003   71.3545    1.7886 C   0  0  2  0  0  0  0  0  0  0  0  0
   24.4335   71.9682    0.7446 C   0  0  2  0  0  0  0  0  0  0  0  0
   22.3681   72.3267    2.1276 C   0  0  1  0  0  0  0  0  0  0  0  0
   23.6451   72.4727   -0.4648 C   0  0  1  0  0  0  0  0  0  0  0  0
   21.7139   72.8817    0.8656 C   0  0  1  0  0  0  0  0  0  0  0  0
   24.9555   70.4767    2.7961 H   0  0  0  0  0  0  0  0  0  0  0  0
   25.8943   70.6858    1.0695 H   0  0  0  0  0  0  0  0  0  0  0  0
   21.7808   71.2830    3.6971 H   0  0  0  0  0  0  0  0  0  0  0  0
   19.5854   73.6593    1.4708 O   0  0  0  0  0  0  0  0  0  0  0  0
   21.2254   75.2204    1.2022 O   0  0  0  0  0  0  0  0  0  0  0  0
   20.8506   74.0575    1.1889 C   0  0  0  0  0  0  0  0  0  0  0  0
  1  4  1  0
  1 24  1  0
  1  2  1  1
  1  3  2  0
 25 28  1  0
 25 24  1  0
 25 26  1  1
 25 27  2  0
  6 11  1  0
  6 12  1  0
 29 36  1  0
 29 37  1  0
  9  7  1  1
  7 13  1  0
 10  8  1  6
  8 14  1  0
  4  5  1  0
 36 28  1  1
 33 30  1  1
 30 38  1  0
 34 31  1  6
 31 39  1  0
 35 32  1  1
 32 40  1  0
 41 43  1  0
 15 19  2  0
 42 43  2  0
 16 22  2  0
 12 17  1  1
 17 19  1  0
 17 20  1  0
 18 19  1  0
 18 22  1  0
 18 23  1  0
  9 10  1  0
  9 11  1  0
 10 12  1  0
 11  5  1  1
 33 34  1  0
 33 35  1  0
 34 36  1  0
 35 37  1  0
 37 43  1  1
 20 21  2  0
 21 22  1  0
M  CHG  3   2  -1  26  -1  41  -1
M  END
>  <COMPND>  (138) 
    udp_gluA.pdb 

>  <AUTHOR>  (138) 
    GENERATED BY OPEN BABEL 3.1.1

>  <MASTER>  (138) 
        0    0    0    0    0    0    0    0   56    0   56    0

>  <minimizedAffinity>  (138) 
-6.24640

>  <CNNscore>  (138) 
0.4319551885

>  <CNNaffinity>  (138) 
4.2968230247

>  <CNN_VS>  (138) 
1.8560349941

>  <CNNaffinity_variance>  (138) 
0.1838060915

$$$$
139
     RDKit          3D

 43 45  0  0  0  0  0  0  0  0999 V2000
   23.7788   72.1102   -3.0759 P   0  0  2  0  0  0  0  0  0  0  0  0
   23.7404   70.4948   -3.1657 O   0  0  0  0  0  0  0  0  0  0  0  0
   24.9225   72.7580   -3.7998 O   0  0  0  0  0  0  0  0  0  0  0  0
   23.6897   72.4133   -1.4891 O   0  0  0  0  0  0  0  0  0  0  0  0
   24.7225   71.9307   -0.6495 C   0  0  0  0  0  0  0  0  0  0  0  0
   24.8938   70.8067    1.4683 O   0  0  0  0  0  0  0  0  0  0  0  0
   22.1647   69.7049    0.8940 O   0  0  0  0  0  0  0  0  0  0  0  0
   21.6329   71.7383    2.6314 O   0  0  0  0  0  0  0  0  0  0  0  0
   22.7049   70.9891    0.5816 C   0  0  1  0  0  0  0  0  0  0  0  0
   22.7924   71.8391    1.8314 C   0  0  2  0  0  0  0  0  0  0  0  0
   24.1719   70.8058    0.2176 C   0  0  1  0  0  0  0  0  0  0  0  0
   24.0249   71.2705    2.5138 C   0  0  2  0  0  0  0  0  0  0  0  0
   21.2279   69.7965    1.1298 H   0  0  0  0  0  0  0  0  0  0  0  0
   20.8765   72.1138    2.1531 H   0  0  0  0  0  0  0  0  0  0  0  0
   23.2205   72.1210    5.0841 O   0  0  0  0  0  0  0  0  0  0  0  0
   26.7672   75.0445    5.4266 O   0  0  0  0  0  0  0  0  0  0  0  0
   24.7198   72.2526    3.2971 N   0  0  0  0  0  0  0  0  0  0  0  0
   24.9871   73.5770    5.2518 N   0  0  0  0  0  0  0  0  0  0  0  0
   24.2320   72.6091    4.5766 C   0  0  0  0  0  0  0  0  0  0  0  0
   25.8709   72.8500    2.7981 C   0  0  0  0  0  0  0  0  0  0  0  0
   26.5800   73.7711    3.4534 C   0  0  0  0  0  0  0  0  0  0  0  0
   26.1378   74.2001    4.7965 C   0  0  0  0  0  0  0  0  0  0  0  0
   24.6660   73.8429    6.1437 H   0  0  0  0  0  0  0  0  0  0  0  0
   22.3146   72.5382   -3.6105 O   0  0  0  0  0  0  0  0  0  0  0  0
   21.8293   73.0866   -5.0518 P   0  0  2  0  0  0  0  0  0  0  0  0
   22.7765   72.2842   -6.0908 O   0  0  0  0  0  0  0  0  0  0  0  0
   21.8835   74.5803   -5.1925 O   0  0  0  0  0  0  0  0  0  0  0  0
   20.3630   72.4472   -5.2604 O   0  0  0  0  0  0  0  0  0  0  0  0
   19.5830   70.2607   -4.7916 O   0  0  0  0  0  0  0  0  0  0  0  0
   17.2873   71.2873   -8.0694 O   0  0  0  0  0  0  0  0  0  0  0  0
   20.1314   71.9500   -7.9872 O   0  0  0  0  0  0  0  0  0  0  0  0
   16.1184   71.2994   -5.4078 O   0  0  0  0  0  0  0  0  0  0  0  0
   18.0219   71.5217   -6.8679 C   0  0  2  0  0  0  0  0  0  0  0  0
   19.4751   71.0889   -7.0639 C   0  0  2  0  0  0  0  0  0  0  0  0
   17.3701   70.7067   -5.7486 C   0  0  1  0  0  0  0  0  0  0  0  0
   20.2355   71.1088   -5.7372 C   0  0  1  0  0  0  0  0  0  0  0  0
   18.2486   70.6711   -4.5014 C   0  0  1  0  0  0  0  0  0  0  0  0
   17.6834   71.7952   -8.7950 H   0  0  0  0  0  0  0  0  0  0  0  0
   19.6540   71.9425   -8.8312 H   0  0  0  0  0  0  0  0  0  0  0  0
   15.5498   71.3283   -6.1931 H   0  0  0  0  0  0  0  0  0  0  0  0
   18.6936   69.4109   -2.5739 O   0  0  0  0  0  0  0  0  0  0  0  0
   16.7072   69.0334   -3.6278 O   0  0  0  0  0  0  0  0  0  0  0  0
   17.7748   69.6224   -3.5485 C   0  0  0  0  0  0  0  0  0  0  0  0
  1  4  1  0
  1 24  1  0
  1  2  1  1
  1  3  2  0
 25 28  1  0
 25 24  1  0
 25 26  1  6
 25 27  2  0
  6 11  1  0
  6 12  1  0
 29 36  1  0
 29 37  1  0
  9  7  1  1
  7 13  1  0
 10  8  1  1
  8 14  1  0
  4  5  1  0
 36 28  1  1
 33 30  1  6
 30 38  1  0
 34 31  1  6
 31 39  1  0
 35 32  1  1
 32 40  1  0
 41 43  1  0
 15 19  2  0
 42 43  2  0
 16 22  2  0
 12 17  1  6
 17 19  1  0
 17 20  1  0
 18 19  1  0
 18 22  1  0
 18 23  1  0
  9 10  1  0
  9 11  1  0
 10 12  1  0
 11  5  1  6
 33 34  1  0
 33 35  1  0
 34 36  1  0
 35 37  1  0
 37 43  1  1
 20 21  2  0
 21 22  1  0
M  CHG  3   2  -1  26  -1  41  -1
M  END
>  <COMPND>  (139) 
    udp_gluA.pdb 

>  <AUTHOR>  (139) 
    GENERATED BY OPEN BABEL 3.1.1

>  <MASTER>  (139) 
        0    0    0    0    0    0    0    0   56    0   56    0

>  <minimizedAffinity>  (139) 
-7.64100

>  <CNNscore>  (139) 
0.4299339354

>  <CNNaffinity>  (139) 
4.0534491539

>  <CNN_VS>  (139) 
1.7427153587

>  <CNNaffinity_variance>  (139) 
0.2276663780

$$$$
140
     RDKit          3D

 43 45  0  0  0  0  0  0  0  0999 V2000
   17.3184   70.0979   -2.2502 P   0  0  2  0  0  0  0  0  0  0  0  0
   17.1984   68.6158   -1.6115 O   0  0  0  0  0  0  0  0  0  0  0  0
   16.1222   70.9785   -2.0366 O   0  0  0  0  0  0  0  0  0  0  0  0
   17.7233   69.8247   -3.7927 O   0  0  0  0  0  0  0  0  0  0  0  0
   16.8562   69.0397   -4.5904 C   0  0  0  0  0  0  0  0  0  0  0  0
   16.9282   71.1563   -5.7272 O   0  0  0  0  0  0  0  0  0  0  0  0
   15.0005   69.9589   -7.6872 O   0  0  0  0  0  0  0  0  0  0  0  0
   17.3796   69.7837   -9.0084 O   0  0  0  0  0  0  0  0  0  0  0  0
   16.0873   69.3419   -6.9967 C   0  0  1  0  0  0  0  0  0  0  0  0
   17.4063   69.7812   -7.5964 C   0  0  2  0  0  0  0  0  0  0  0  0
   16.1572   69.9421   -5.5991 C   0  0  1  0  0  0  0  0  0  0  0  0
   17.5702   71.1739   -7.0120 C   0  0  2  0  0  0  0  0  0  0  0  0
   14.9359   69.5914   -8.5830 H   0  0  0  0  0  0  0  0  0  0  0  0
   17.2739   68.8746   -9.3314 H   0  0  0  0  0  0  0  0  0  0  0  0
   18.4808   73.8105   -6.5700 O   0  0  0  0  0  0  0  0  0  0  0  0
   22.8805   72.4519   -6.3680 O   0  0  0  0  0  0  0  0  0  0  0  0
   18.9483   71.5375   -6.8405 N   0  0  0  0  0  0  0  0  0  0  0  0
   20.6713   73.1315   -6.4709 N   0  0  0  0  0  0  0  0  0  0  0  0
   19.2996   72.8909   -6.6241 C   0  0  0  0  0  0  0  0  0  0  0  0
   19.9344   70.5595   -6.8857 C   0  0  0  0  0  0  0  0  0  0  0  0
   21.2379   70.8041   -6.7378 C   0  0  0  0  0  0  0  0  0  0  0  0
   21.6892   72.1924   -6.5086 C   0  0  0  0  0  0  0  0  0  0  0  0
   20.9404   74.0666   -6.3211 H   0  0  0  0  0  0  0  0  0  0  0  0
   18.6913   70.6597   -1.6081 O   0  0  0  0  0  0  0  0  0  0  0  0
   19.3400   72.1405   -1.6187 P   0  0  2  0  0  0  0  0  0  0  0  0
   18.5600   72.8946   -0.4173 O   0  0  0  0  0  0  0  0  0  0  0  0
   19.2570   72.8397   -2.9447 O   0  0  0  0  0  0  0  0  0  0  0  0
   20.8405   71.9341   -1.0635 O   0  0  0  0  0  0  0  0  0  0  0  0
   22.6321   71.2009   -2.4280 O   0  0  0  0  0  0  0  0  0  0  0  0
   23.9918   70.2146    1.3465 O   0  0  0  0  0  0  0  0  0  0  0  0
   21.2066   69.7387    0.6046 O   0  0  0  0  0  0  0  0  0  0  0  0
   25.0768   72.5300   -0.0365 O   0  0  0  0  0  0  0  0  0  0  0  0
   23.2772   70.9826    0.3782 C   0  0  2  0  0  0  0  0  0  0  0  0
   22.2362   70.0986   -0.3092 C   0  0  2  0  0  0  0  0  0  0  0  0
   24.2858   71.5107   -0.6445 C   0  0  1  0  0  0  0  0  0  0  0  0
   21.6115   70.8182   -1.5053 C   0  0  1  0  0  0  0  0  0  0  0  0
   23.5848   72.1001   -1.8650 C   0  0  1  0  0  0  0  0  0  0  0  0
   23.3711   69.8686    2.0070 H   0  0  0  0  0  0  0  0  0  0  0  0
   21.5959   69.2819    1.3662 H   0  0  0  0  0  0  0  0  0  0  0  0
   25.5283   72.1679    0.7419 H   0  0  0  0  0  0  0  0  0  0  0  0
   25.3721   71.2343   -3.1130 O   0  0  0  0  0  0  0  0  0  0  0  0
   24.6043   73.3017   -3.6921 O   0  0  0  0  0  0  0  0  0  0  0  0
   24.5528   72.3072   -2.9842 C   0  0  0  0  0  0  0  0  0  0  0  0
  1  4  1  0
  1 24  1  0
  1  2  1  1
  1  3  2  0
 25 28  1  0
 25 24  1  0
 25 26  1  1
 25 27  2  0
  6 11  1  0
  6 12  1  0
 29 36  1  0
 29 37  1  0
  9  7  1  6
  7 13  1  0
 10  8  1  6
  8 14  1  0
  4  5  1  0
 36 28  1  1
 33 30  1  1
 30 38  1  0
 34 31  1  1
 31 39  1  0
 35 32  1  1
 32 40  1  0
 41 43  1  0
 15 19  2  0
 42 43  2  0
 16 22  2  0
 12 17  1  1
 17 19  1  0
 17 20  1  0
 18 19  1  0
 18 22  1  0
 18 23  1  0
  9 10  1  0
  9 11  1  0
 10 12  1  0
 11  5  1  1
 33 34  1  0
 33 35  1  0
 34 36  1  0
 35 37  1  0
 37 43  1  6
 20 21  2  0
 21 22  1  0
M  CHG  3   2  -1  26  -1  41  -1
M  END
>  <COMPND>  (140) 
    udp_gluA.pdb 

>  <AUTHOR>  (140) 
    GENERATED BY OPEN BABEL 3.1.1

>  <MASTER>  (140) 
        0    0    0    0    0    0    0    0   56    0   56    0

>  <minimizedAffinity>  (140) 
-8.03783

>  <CNNscore>  (140) 
0.4163095355

>  <CNNaffinity>  (140) 
4.2579174042

>  <CNN_VS>  (140) 
1.7726116180

>  <CNNaffinity_variance>  (140) 
0.9745151401

$$$$
141
     RDKit          3D

 43 45  0  0  0  0  0  0  0  0999 V2000
   15.8803   69.8440   -1.5344 P   0  0  2  0  0  0  0  0  0  0  0  0
   15.7961   71.1547   -0.5890 O   0  0  0  0  0  0  0  0  0  0  0  0
   15.0789   69.9235   -2.8006 O   0  0  0  0  0  0  0  0  0  0  0  0
   15.5050   68.6234   -0.5408 O   0  0  0  0  0  0  0  0  0  0  0  0
   14.4611   68.8117    0.3971 C   0  0  0  0  0  0  0  0  0  0  0  0
   12.5283   67.3871    0.2866 O   0  0  0  0  0  0  0  0  0  0  0  0
   11.1735   69.6487   -1.1421 O   0  0  0  0  0  0  0  0  0  0  0  0
   10.1910   69.8709    1.3919 O   0  0  0  0  0  0  0  0  0  0  0  0
   12.1216   69.6923   -0.0754 C   0  0  1  0  0  0  0  0  0  0  0  0
   11.4650   69.2844    1.2264 C   0  0  2  0  0  0  0  0  0  0  0  0
   13.1249   68.5678   -0.2924 C   0  0  1  0  0  0  0  0  0  0  0  0
   11.3993   67.7731    1.0864 C   0  0  2  0  0  0  0  0  0  0  0  0
   10.5219   70.3582   -1.0252 H   0  0  0  0  0  0  0  0  0  0  0  0
   10.2865   70.8330    1.4767 H   0  0  0  0  0  0  0  0  0  0  0  0
    9.1796   67.2801    2.7617 O   0  0  0  0  0  0  0  0  0  0  0  0
   11.8000   65.1887    5.9246 O   0  0  0  0  0  0  0  0  0  0  0  0
   11.4731   67.1017    2.3532 N   0  0  0  0  0  0  0  0  0  0  0  0
   10.4870   66.2399    4.3359 N   0  0  0  0  0  0  0  0  0  0  0  0
   10.2985   66.9048    3.1171 C   0  0  0  0  0  0  0  0  0  0  0  0
   12.6974   66.6451    2.8259 C   0  0  0  0  0  0  0  0  0  0  0  0
   12.8613   66.0128    3.9895 C   0  0  0  0  0  0  0  0  0  0  0  0
   11.6844   65.7678    4.8487 C   0  0  0  0  0  0  0  0  0  0  0  0
    9.6840   66.0930    4.8863 H   0  0  0  0  0  0  0  0  0  0  0  0
   17.4707   69.6572   -1.7548 O   0  0  0  0  0  0  0  0  0  0  0  0
   18.6247   70.7287   -2.1206 P   0  0  2  0  0  0  0  0  0  0  0  0
   19.9484   69.8094   -2.2722 O   0  0  0  0  0  0  0  0  0  0  0  0
   18.7603   71.8496   -1.1311 O   0  0  0  0  0  0  0  0  0  0  0  0
   18.2826   71.2011   -3.6247 O   0  0  0  0  0  0  0  0  0  0  0  0
   17.1342   70.0745   -5.3628 O   0  0  0  0  0  0  0  0  0  0  0  0
   19.8904   72.3044   -7.4838 O   0  0  0  0  0  0  0  0  0  0  0  0
   20.6714   70.9349   -5.0244 O   0  0  0  0  0  0  0  0  0  0  0  0
   17.1028   73.1251   -7.4013 O   0  0  0  0  0  0  0  0  0  0  0  0
   18.9976   72.0173   -6.4075 C   0  0  2  0  0  0  0  0  0  0  0  0
   19.4386   70.7327   -5.7056 C   0  0  2  0  0  0  0  0  0  0  0  0
   17.5925   71.8500   -6.9903 C   0  0  1  0  0  0  0  0  0  0  0  0
   18.3840   70.2691   -4.6998 C   0  0  1  0  0  0  0  0  0  0  0  0
   16.6287   71.2657   -5.9617 C   0  0  1  0  0  0  0  0  0  0  0  0
   20.7899   72.4148   -7.1374 H   0  0  0  0  0  0  0  0  0  0  0  0
   21.3451   71.2295   -5.6566 H   0  0  0  0  0  0  0  0  0  0  0  0
   17.7074   73.5080   -8.0560 H   0  0  0  0  0  0  0  0  0  0  0  0
   14.4113   71.7601   -6.5452 O   0  0  0  0  0  0  0  0  0  0  0  0
   15.2151   69.7143   -7.1517 O   0  0  0  0  0  0  0  0  0  0  0  0
   15.3690   70.8027   -6.6181 C   0  0  0  0  0  0  0  0  0  0  0  0
  1  4  1  0
  1 24  1  0
  1  2  1  1
  1  3  2  0
 25 28  1  0
 25 24  1  0
 25 26  1  6
 25 27  2  0
  6 11  1  0
  6 12  1  0
 29 36  1  0
 29 37  1  0
  9  7  1  6
  7 13  1  0
 10  8  1  6
  8 14  1  0
  4  5  1  0
 36 28  1  1
 33 30  1  6
 30 38  1  0
 34 31  1  1
 31 39  1  0
 35 32  1  1
 32 40  1  0
 41 43  1  0
 15 19  2  0
 42 43  2  0
 16 22  2  0
 12 17  1  1
 17 19  1  0
 17 20  1  0
 18 19  1  0
 18 22  1  0
 18 23  1  0
  9 10  1  0
  9 11  1  0
 10 12  1  0
 11  5  1  1
 33 34  1  0
 33 35  1  0
 34 36  1  0
 35 37  1  0
 37 43  1  6
 20 21  2  0
 21 22  1  0
M  CHG  3   2  -1  26  -1  41  -1
M  END
>  <COMPND>  (141) 
    udp_gluA.pdb 

>  <AUTHOR>  (141) 
    GENERATED BY OPEN BABEL 3.1.1

>  <MASTER>  (141) 
        0    0    0    0    0    0    0    0   56    0   56    0

>  <minimizedAffinity>  (141) 
-6.70524

>  <CNNscore>  (141) 
0.7511811256

>  <CNNaffinity>  (141) 
4.2965283394

>  <CNN_VS>  (141) 
3.2274711132

>  <CNNaffinity_variance>  (141) 
0.1040497050

$$$$
142
     RDKit          3D

 43 45  0  0  0  0  0  0  0  0999 V2000
   16.0759   69.7327   -1.5454 P   0  0  2  0  0  0  0  0  0  0  0  0
   15.8986   71.1032   -0.7033 O   0  0  0  0  0  0  0  0  0  0  0  0
   15.4575   69.7446   -2.9126 O   0  0  0  0  0  0  0  0  0  0  0  0
   15.5356   68.5861   -0.5398 O   0  0  0  0  0  0  0  0  0  0  0  0
   14.4700   68.9031    0.3369 C   0  0  0  0  0  0  0  0  0  0  0  0
   12.5847   67.4170    0.2156 O   0  0  0  0  0  0  0  0  0  0  0  0
   11.1717   69.6278   -1.2360 O   0  0  0  0  0  0  0  0  0  0  0  0
   10.1592   69.8297    1.2879 O   0  0  0  0  0  0  0  0  0  0  0  0
   12.1079   69.7065   -0.1610 C   0  0  1  0  0  0  0  0  0  0  0  0
   11.4527   69.2835    1.1367 C   0  0  2  0  0  0  0  0  0  0  0  0
   13.1486   68.6136   -0.3635 C   0  0  1  0  0  0  0  0  0  0  0  0
   11.4366   67.7702    1.0033 C   0  0  2  0  0  0  0  0  0  0  0  0
   10.4966   70.3166   -1.1284 H   0  0  0  0  0  0  0  0  0  0  0  0
   10.2232   70.7947    1.3689 H   0  0  0  0  0  0  0  0  0  0  0  0
    9.2425   67.3544    2.7324 O   0  0  0  0  0  0  0  0  0  0  0  0
   11.8737   65.2142    5.8533 O   0  0  0  0  0  0  0  0  0  0  0  0
   11.5201   67.1072    2.2738 N   0  0  0  0  0  0  0  0  0  0  0  0
   10.5553   66.2898    4.2856 N   0  0  0  0  0  0  0  0  0  0  0  0
   10.3580   66.9501    3.0657 C   0  0  0  0  0  0  0  0  0  0  0  0
   12.7414   66.6195    2.7227 C   0  0  0  0  0  0  0  0  0  0  0  0
   12.9137   65.9921    3.8878 C   0  0  0  0  0  0  0  0  0  0  0  0
   11.7501   65.7877    4.7753 C   0  0  0  0  0  0  0  0  0  0  0  0
    9.7612   66.1704    4.8552 H   0  0  0  0  0  0  0  0  0  0  0  0
   17.6759   69.5031   -1.5321 O   0  0  0  0  0  0  0  0  0  0  0  0
   18.8773   70.3647   -2.1864 P   0  0  2  0  0  0  0  0  0  0  0  0
   20.2063   69.6038   -1.6619 O   0  0  0  0  0  0  0  0  0  0  0  0
   18.8337   71.8293   -1.8594 O   0  0  0  0  0  0  0  0  0  0  0  0
   18.8109   70.0283   -3.7627 O   0  0  0  0  0  0  0  0  0  0  0  0
   19.6646   71.7652   -5.1278 O   0  0  0  0  0  0  0  0  0  0  0  0
   18.0406   69.2088   -7.9377 O   0  0  0  0  0  0  0  0  0  0  0  0
   16.6152   69.7744   -5.4511 O   0  0  0  0  0  0  0  0  0  0  0  0
   20.9206   69.3199   -7.5579 O   0  0  0  0  0  0  0  0  0  0  0  0
   18.6783   69.5599   -6.7096 C   0  0  2  0  0  0  0  0  0  0  0  0
   17.7636   70.4824   -5.9035 C   0  0  2  0  0  0  0  0  0  0  0  0
   19.9907   70.2720   -7.0450 C   0  0  1  0  0  0  0  0  0  0  0  0
   18.4994   71.0623   -4.6947 C   0  0  1  0  0  0  0  0  0  0  0  0
   20.5983   70.9309   -5.8100 C   0  0  1  0  0  0  0  0  0  0  0  0
   17.2041   68.7548   -7.7495 H   0  0  0  0  0  0  0  0  0  0  0  0
   16.1437   69.4035   -6.2130 H   0  0  0  0  0  0  0  0  0  0  0  0
   20.5459   68.8931   -8.3442 H   0  0  0  0  0  0  0  0  0  0  0  0
   22.4015   72.2574   -5.1095 O   0  0  0  0  0  0  0  0  0  0  0  0
   21.8961   72.2793   -7.3329 O   0  0  0  0  0  0  0  0  0  0  0  0
   21.6810   71.8853   -6.1965 C   0  0  0  0  0  0  0  0  0  0  0  0
  1  4  1  0
  1 24  1  0
  1  2  1  1
  1  3  2  0
 25 28  1  0
 25 24  1  0
 25 26  1  1
 25 27  2  0
  6 11  1  0
  6 12  1  0
 29 36  1  0
 29 37  1  0
  9  7  1  6
  7 13  1  0
 10  8  1  6
  8 14  1  0
  4  5  1  0
 36 28  1  1
 33 30  1  6
 30 38  1  0
 34 31  1  1
 31 39  1  0
 35 32  1  1
 32 40  1  0
 41 43  1  0
 15 19  2  0
 42 43  2  0
 16 22  2  0
 12 17  1  1
 17 19  1  0
 17 20  1  0
 18 19  1  0
 18 22  1  0
 18 23  1  0
  9 10  1  0
  9 11  1  0
 10 12  1  0
 11  5  1  1
 33 34  1  0
 33 35  1  0
 34 36  1  0
 35 37  1  0
 37 43  1  6
 20 21  2  0
 21 22  1  0
M  CHG  3   2  -1  26  -1  41  -1
M  END
>  <COMPND>  (142) 
    udp_gluA.pdb 

>  <AUTHOR>  (142) 
    GENERATED BY OPEN BABEL 3.1.1

>  <MASTER>  (142) 
        0    0    0    0    0    0    0    0   56    0   56    0

>  <minimizedAffinity>  (142) 
-7.18060

>  <CNNscore>  (142) 
0.7053118348

>  <CNNaffinity>  (142) 
4.1273183823

>  <CNN_VS>  (142) 
2.9110465050

>  <CNNaffinity_variance>  (142) 
0.0866783261

$$$$
143
     RDKit          3D

 43 45  0  0  0  0  0  0  0  0999 V2000
   23.6409   71.7278   -2.7210 P   0  0  2  0  0  0  0  0  0  0  0  0
   24.9753   70.8270   -2.8851 O   0  0  0  0  0  0  0  0  0  0  0  0
   23.4940   72.8317   -3.7267 O   0  0  0  0  0  0  0  0  0  0  0  0
   23.6720   72.1894   -1.1705 O   0  0  0  0  0  0  0  0  0  0  0  0
   24.4436   71.4334   -0.2553 C   0  0  0  0  0  0  0  0  0  0  0  0
   24.3183   70.7403    2.0429 O   0  0  0  0  0  0  0  0  0  0  0  0
   21.3519   71.1024    1.7965 O   0  0  0  0  0  0  0  0  0  0  0  0
   22.1241   73.3750    3.0909 O   0  0  0  0  0  0  0  0  0  0  0  0
   22.4070   71.8630    1.2077 C   0  0  1  0  0  0  0  0  0  0  0  0
   23.0657   72.7406    2.2509 C   0  0  2  0  0  0  0  0  0  0  0  0
   23.5312   70.9030    0.8431 C   0  0  1  0  0  0  0  0  0  0  0  0
   23.9369   71.7443    2.9967 C   0  0  2  0  0  0  0  0  0  0  0  0
   20.6219   71.6945    2.0379 H   0  0  0  0  0  0  0  0  0  0  0  0
   21.5946   73.9992    2.5694 H   0  0  0  0  0  0  0  0  0  0  0  0
   24.0865   72.9669    5.5382 O   0  0  0  0  0  0  0  0  0  0  0  0
   28.5341   74.0323    4.9661 O   0  0  0  0  0  0  0  0  0  0  0  0
   25.1216   72.3490    3.5369 N   0  0  0  0  0  0  0  0  0  0  0  0
   26.3012   73.4973    5.2504 N   0  0  0  0  0  0  0  0  0  0  0  0
   25.0903   72.9363    4.8239 C   0  0  0  0  0  0  0  0  0  0  0  0
   26.2970   72.3550    2.7958 C   0  0  0  0  0  0  0  0  0  0  0  0
   27.4435   72.8934    3.2158 C   0  0  0  0  0  0  0  0  0  0  0  0
   27.4957   73.5282    4.5491 C   0  0  0  0  0  0  0  0  0  0  0  0
   26.3036   73.9139    6.1425 H   0  0  0  0  0  0  0  0  0  0  0  0
   22.4556   70.6290   -2.7492 O   0  0  0  0  0  0  0  0  0  0  0  0
   20.9519   70.6744   -2.1573 P   0  0  2  0  0  0  0  0  0  0  0  0
   20.6835   72.2573   -1.9504 O   0  0  0  0  0  0  0  0  0  0  0  0
   20.7514   69.8464   -0.9212 O   0  0  0  0  0  0  0  0  0  0  0  0
   20.0102   70.2608   -3.4002 O   0  0  0  0  0  0  0  0  0  0  0  0
   18.6134   70.9921   -5.1675 O   0  0  0  0  0  0  0  0  0  0  0  0
   15.8894   69.2036   -2.6279 O   0  0  0  0  0  0  0  0  0  0  0  0
   18.0214   70.8920   -1.5611 O   0  0  0  0  0  0  0  0  0  0  0  0
   16.7272   67.8468   -5.0586 O   0  0  0  0  0  0  0  0  0  0  0  0
   17.1571   69.3887   -3.2578 C   0  0  2  0  0  0  0  0  0  0  0  0
   17.6870   70.7872   -2.9401 C   0  0  2  0  0  0  0  0  0  0  0  0
   16.9640   69.2228   -4.7668 C   0  0  1  0  0  0  0  0  0  0  0  0
   18.9255   71.1064   -3.7786 C   0  0  1  0  0  0  0  0  0  0  0  0
   18.1976   69.6800   -5.5399 C   0  0  1  0  0  0  0  0  0  0  0  0
   15.9873   69.3045   -1.6680 H   0  0  0  0  0  0  0  0  0  0  0  0
   17.2402   70.6904   -1.0231 H   0  0  0  0  0  0  0  0  0  0  0  0
   15.9446   67.5433   -4.5726 H   0  0  0  0  0  0  0  0  0  0  0  0
   18.9877   70.2268   -7.6796 O   0  0  0  0  0  0  0  0  0  0  0  0
   16.7984   69.6140   -7.5044 O   0  0  0  0  0  0  0  0  0  0  0  0
   17.8882   69.8263   -6.9942 C   0  0  0  0  0  0  0  0  0  0  0  0
  1  4  1  0
  1 24  1  0
  1  2  1  6
  1  3  2  0
 25 28  1  0
 25 24  1  0
 25 26  1  1
 25 27  2  0
  6 11  1  0
  6 12  1  0
 29 36  1  0
 29 37  1  0
  9  7  1  1
  7 13  1  0
 10  8  1  1
  8 14  1  0
  4  5  1  0
 36 28  1  1
 33 30  1  1
 30 38  1  0
 34 31  1  1
 31 39  1  0
 35 32  1  1
 32 40  1  0
 41 43  1  0
 15 19  2  0
 42 43  2  0
 16 22  2  0
 12 17  1  6
 17 19  1  0
 17 20  1  0
 18 19  1  0
 18 22  1  0
 18 23  1  0
  9 10  1  0
  9 11  1  0
 10 12  1  0
 11  5  1  6
 33 34  1  0
 33 35  1  0
 34 36  1  0
 35 37  1  0
 37 43  1  6
 20 21  2  0
 21 22  1  0
M  CHG  3   2  -1  26  -1  41  -1
M  END
>  <COMPND>  (143) 
    udp_gluA.pdb 

>  <AUTHOR>  (143) 
    GENERATED BY OPEN BABEL 3.1.1

>  <MASTER>  (143) 
        0    0    0    0    0    0    0    0   56    0   56    0

>  <minimizedAffinity>  (143) 
-7.50331

>  <CNNscore>  (143) 
0.5969475508

>  <CNNaffinity>  (143) 
4.3626956940

>  <CNN_VS>  (143) 
2.6043004990

>  <CNNaffinity_variance>  (143) 
0.0436523035

$$$$
144
     RDKit          3D

 43 45  0  0  0  0  0  0  0  0999 V2000
   18.6914   70.0637   -2.6419 P   0  0  2  0  0  0  0  0  0  0  0  0
   18.0381   68.6453   -2.2174 O   0  0  0  0  0  0  0  0  0  0  0  0
   18.1158   71.2606   -1.9434 O   0  0  0  0  0  0  0  0  0  0  0  0
   18.5841   70.0733   -4.2563 O   0  0  0  0  0  0  0  0  0  0  0  0
   17.4948   69.4048   -4.8655 C   0  0  0  0  0  0  0  0  0  0  0  0
   16.1287   70.0941   -6.7192 O   0  0  0  0  0  0  0  0  0  0  0  0
   18.6901   70.8328   -8.0920 O   0  0  0  0  0  0  0  0  0  0  0  0
   17.7661   73.2446   -7.2169 O   0  0  0  0  0  0  0  0  0  0  0  0
   18.3423   70.9371   -6.7111 C   0  0  1  0  0  0  0  0  0  0  0  0
   17.3852   72.0905   -6.4974 C   0  0  2  0  0  0  0  0  0  0  0  0
   17.4786   69.7356   -6.3523 C   0  0  1  0  0  0  0  0  0  0  0  0
   16.0712   71.5045   -6.9852 C   0  0  2  0  0  0  0  0  0  0  0  0
   19.2423   71.5898   -8.3447 H   0  0  0  0  0  0  0  0  0  0  0  0
   18.6079   73.5794   -6.8686 H   0  0  0  0  0  0  0  0  0  0  0  0
   13.9035   72.7739   -8.2762 O   0  0  0  0  0  0  0  0  0  0  0  0
   11.7718   73.6069   -4.2755 O   0  0  0  0  0  0  0  0  0  0  0  0
   14.9365   72.0621   -6.3052 N   0  0  0  0  0  0  0  0  0  0  0  0
   12.8443   73.1885   -6.2823 N   0  0  0  0  0  0  0  0  0  0  0  0
   13.9014   72.6784   -7.0475 C   0  0  0  0  0  0  0  0  0  0  0  0
   14.8560   71.9941   -4.9196 C   0  0  0  0  0  0  0  0  0  0  0  0
   13.8420   72.4848   -4.2042 C   0  0  0  0  0  0  0  0  0  0  0  0
   12.7201   73.1453   -4.9031 C   0  0  0  0  0  0  0  0  0  0  0  0
   12.1128   73.6240   -6.7768 H   0  0  0  0  0  0  0  0  0  0  0  0
   20.2696   69.8280   -2.3840 O   0  0  0  0  0  0  0  0  0  0  0  0
   21.5510   70.7515   -2.7286 P   0  0  2  0  0  0  0  0  0  0  0  0
   20.9670   71.8060   -3.8090 O   0  0  0  0  0  0  0  0  0  0  0  0
   22.7533   69.9856   -3.1995 O   0  0  0  0  0  0  0  0  0  0  0  0
   21.7948   71.6271   -1.3958 O   0  0  0  0  0  0  0  0  0  0  0  0
   23.7572   72.4095   -0.3253 O   0  0  0  0  0  0  0  0  0  0  0  0
   21.3350   71.5236    2.9022 O   0  0  0  0  0  0  0  0  0  0  0  0
   21.4570   69.7240    0.6042 O   0  0  0  0  0  0  0  0  0  0  0  0
   21.7535   74.2884    2.1073 O   0  0  0  0  0  0  0  0  0  0  0  0
   21.6287   71.9431    1.5696 C   0  0  2  0  0  0  0  0  0  0  0  0
   22.3429   70.8156    0.8239 C   0  0  2  0  0  0  0  0  0  0  0  0
   22.5262   73.1800    1.6502 C   0  0  1  0  0  0  0  0  0  0  0  0
   22.8763   71.3031   -0.5240 C   0  0  1  0  0  0  0  0  0  0  0  0
   23.1193   73.5276    0.2879 C   0  0  1  0  0  0  0  0  0  0  0  0
   20.7656   70.7385    2.8762 H   0  0  0  0  0  0  0  0  0  0  0  0
   21.1145   69.4098    1.4553 H   0  0  0  0  0  0  0  0  0  0  0  0
   21.3702   74.0800    2.9736 H   0  0  0  0  0  0  0  0  0  0  0  0
   23.7478   75.7464    0.7162 O   0  0  0  0  0  0  0  0  0  0  0  0
   25.4208   74.2515    0.3094 O   0  0  0  0  0  0  0  0  0  0  0  0
   24.2333   74.5130    0.4301 C   0  0  0  0  0  0  0  0  0  0  0  0
  1  4  1  0
  1 24  1  0
  1  2  1  1
  1  3  2  0
 25 28  1  0
 25 24  1  0
 25 26  1  6
 25 27  2  0
  6 11  1  0
  6 12  1  0
 29 36  1  0
 29 37  1  0
  9  7  1  6
  7 13  1  0
 10  8  1  6
  8 14  1  0
  4  5  1  0
 36 28  1  6
 33 30  1  1
 30 38  1  0
 34 31  1  6
 31 39  1  0
 35 32  1  6
 32 40  1  0
 41 43  1  0
 15 19  2  0
 42 43  2  0
 16 22  2  0
 12 17  1  1
 17 19  1  0
 17 20  1  0
 18 19  1  0
 18 22  1  0
 18 23  1  0
  9 10  1  0
  9 11  1  0
 10 12  1  0
 11  5  1  1
 33 34  1  0
 33 35  1  0
 34 36  1  0
 35 37  1  0
 37 43  1  1
 20 21  2  0
 21 22  1  0
M  CHG  3   2  -1  26  -1  41  -1
M  END
>  <COMPND>  (144) 
    udp_gluA.pdb 

>  <AUTHOR>  (144) 
    GENERATED BY OPEN BABEL 3.1.1

>  <MASTER>  (144) 
        0    0    0    0    0    0    0    0   56    0   56    0

>  <minimizedAffinity>  (144) 
-6.88798

>  <CNNscore>  (144) 
0.5427088737

>  <CNNaffinity>  (144) 
4.2676839828

>  <CNN_VS>  (144) 
2.3161098957

>  <CNNaffinity_variance>  (144) 
0.0914912596

$$$$
145
     RDKit          3D

 43 45  0  0  0  0  0  0  0  0999 V2000
   22.8218   71.8327   -2.3289 P   0  0  2  0  0  0  0  0  0  0  0  0
   24.1205   70.8753   -2.4537 O   0  0  0  0  0  0  0  0  0  0  0  0
   22.9703   73.1871   -2.9578 O   0  0  0  0  0  0  0  0  0  0  0  0
   22.4848   71.8260   -0.7464 O   0  0  0  0  0  0  0  0  0  0  0  0
   23.4204   71.2425    0.1416 C   0  0  0  0  0  0  0  0  0  0  0  0
   23.7828   70.8528    2.4857 O   0  0  0  0  0  0  0  0  0  0  0  0
   20.9368   71.7117    2.8783 O   0  0  0  0  0  0  0  0  0  0  0  0
   22.3357   73.9421    3.5886 O   0  0  0  0  0  0  0  0  0  0  0  0
   21.9073   72.1971    1.9504 C   0  0  1  0  0  0  0  0  0  0  0  0
   22.9301   73.0562    2.6632 C   0  0  2  0  0  0  0  0  0  0  0  0
   22.7494   71.0150    1.4901 C   0  0  1  0  0  0  0  0  0  0  0  0
   23.8069   72.0122    3.3333 C   0  0  2  0  0  0  0  0  0  0  0  0
   20.3866   72.4492    3.1866 H   0  0  0  0  0  0  0  0  0  0  0  0
   21.7882   74.5871    3.1129 H   0  0  0  0  0  0  0  0  0  0  0  0
   24.7246   73.6639    5.4324 O   0  0  0  0  0  0  0  0  0  0  0  0
   29.0392   73.6378    3.8114 O   0  0  0  0  0  0  0  0  0  0  0  0
   25.1651   72.4522    3.4841 N   0  0  0  0  0  0  0  0  0  0  0  0
   26.8724   73.6502    4.6225 N   0  0  0  0  0  0  0  0  0  0  0  0
   25.5218   73.2805    4.5743 C   0  0  0  0  0  0  0  0  0  0  0  0
   26.1270   72.0625    2.5600 C   0  0  0  0  0  0  0  0  0  0  0  0
   27.4105   72.4228    2.6193 C   0  0  0  0  0  0  0  0  0  0  0  0
   27.8657   73.2884    3.7269 C   0  0  0  0  0  0  0  0  0  0  0  0
   27.1443   74.2284    5.3715 H   0  0  0  0  0  0  0  0  0  0  0  0
   21.6403   70.9251   -2.9559 O   0  0  0  0  0  0  0  0  0  0  0  0
   20.0992   70.7312   -2.5075 P   0  0  2  0  0  0  0  0  0  0  0  0
   19.5782   72.2507   -2.3077 O   0  0  0  0  0  0  0  0  0  0  0  0
   19.9136   69.8508   -1.3057 O   0  0  0  0  0  0  0  0  0  0  0  0
   19.3476   70.2148   -3.8383 O   0  0  0  0  0  0  0  0  0  0  0  0
   19.7195   71.9213   -5.4378 O   0  0  0  0  0  0  0  0  0  0  0  0
   17.7595   69.0680   -7.6929 O   0  0  0  0  0  0  0  0  0  0  0  0
   16.8680   69.6797   -4.9789 O   0  0  0  0  0  0  0  0  0  0  0  0
   20.6303   69.4300   -7.9728 O   0  0  0  0  0  0  0  0  0  0  0  0
   18.6160   69.5472   -6.6561 C   0  0  2  0  0  0  0  0  0  0  0  0
   17.8199   70.4451   -5.7088 C   0  0  2  0  0  0  0  0  0  0  0  0
   19.7525   70.3373   -7.3090 C   0  0  1  0  0  0  0  0  0  0  0  0
   18.7466   71.1584   -4.7232 C   0  0  1  0  0  0  0  0  0  0  0  0
   20.5532   71.1207   -6.2728 C   0  0  1  0  0  0  0  0  0  0  0  0
   17.0295   68.5627   -7.3017 H   0  0  0  0  0  0  0  0  0  0  0  0
   16.2768   69.2242   -5.5982 H   0  0  0  0  0  0  0  0  0  0  0  0
   20.1330   68.9250   -8.6350 H   0  0  0  0  0  0  0  0  0  0  0  0
   22.0689   72.8913   -6.0100 O   0  0  0  0  0  0  0  0  0  0  0  0
   21.5692   72.2577   -8.1426 O   0  0  0  0  0  0  0  0  0  0  0  0
   21.4333   72.1302   -6.9350 C   0  0  0  0  0  0  0  0  0  0  0  0
  1  4  1  0
  1 24  1  0
  1  2  1  1
  1  3  2  0
 25 28  1  0
 25 24  1  0
 25 26  1  1
 25 27  2  0
  6 11  1  0
  6 12  1  0
 29 36  1  0
 29 37  1  0
  9  7  1  1
  7 13  1  0
 10  8  1  1
  8 14  1  0
  4  5  1  0
 36 28  1  6
 33 30  1  6
 30 38  1  0
 34 31  1  1
 31 39  1  0
 35 32  1  1
 32 40  1  0
 41 43  1  0
 15 19  2  0
 42 43  2  0
 16 22  2  0
 12 17  1  6
 17 19  1  0
 17 20  1  0
 18 19  1  0
 18 22  1  0
 18 23  1  0
  9 10  1  0
  9 11  1  0
 10 12  1  0
 11  5  1  6
 33 34  1  0
 33 35  1  0
 34 36  1  0
 35 37  1  0
 37 43  1  6
 20 21  2  0
 21 22  1  0
M  CHG  3   2  -1  26  -1  41  -1
M  END
>  <COMPND>  (145) 
    udp_gluA.pdb 

>  <AUTHOR>  (145) 
    GENERATED BY OPEN BABEL 3.1.1

>  <MASTER>  (145) 
        0    0    0    0    0    0    0    0   56    0   56    0

>  <minimizedAffinity>  (145) 
-6.75303

>  <CNNscore>  (145) 
0.5358380675

>  <CNNaffinity>  (145) 
4.3201231956

>  <CNN_VS>  (145) 
2.3148865700

>  <CNNaffinity_variance>  (145) 
0.0831617787

$$$$
146
     RDKit          3D

 43 45  0  0  0  0  0  0  0  0999 V2000
   22.7664   72.0323   -1.6799 P   0  0  2  0  0  0  0  0  0  0  0  0
   23.3775   70.7106   -2.3859 O   0  0  0  0  0  0  0  0  0  0  0  0
   21.2694   72.1320   -1.7103 O   0  0  0  0  0  0  0  0  0  0  0  0
   23.5662   73.2520   -2.3802 O   0  0  0  0  0  0  0  0  0  0  0  0
   22.9269   73.9722   -3.4181 C   0  0  0  0  0  0  0  0  0  0  0  0
   23.6441   72.9020   -5.4474 O   0  0  0  0  0  0  0  0  0  0  0  0
   24.8029   75.5579   -6.2188 O   0  0  0  0  0  0  0  0  0  0  0  0
   22.4791   75.4852   -7.6438 O   0  0  0  0  0  0  0  0  0  0  0  0
   23.6041   75.2699   -5.4989 C   0  0  1  0  0  0  0  0  0  0  0  0
   22.5397   74.7479   -6.4408 C   0  0  2  0  0  0  0  0  0  0  0  0
   23.8672   74.0596   -4.6133 C   0  0  1  0  0  0  0  0  0  0  0  0
   22.9865   73.3120   -6.6569 C   0  0  2  0  0  0  0  0  0  0  0  0
   24.6594   76.3278   -6.7918 H   0  0  0  0  0  0  0  0  0  0  0  0
   22.1898   76.3918   -7.4530 H   0  0  0  0  0  0  0  0  0  0  0  0
   21.7368   73.0057   -9.1710 O   0  0  0  0  0  0  0  0  0  0  0  0
   18.7678   69.8908   -7.5199 O   0  0  0  0  0  0  0  0  0  0  0  0
   21.8847   72.4278   -6.9121 N   0  0  0  0  0  0  0  0  0  0  0  0
   20.2586   71.4553   -8.3460 N   0  0  0  0  0  0  0  0  0  0  0  0
   21.3294   72.3488   -8.2111 C   0  0  0  0  0  0  0  0  0  0  0  0
   21.3669   71.6501   -5.8835 C   0  0  0  0  0  0  0  0  0  0  0  0
   20.3460   70.8029   -6.0275 C   0  0  0  0  0  0  0  0  0  0  0  0
   19.7084   70.6613   -7.3529 C   0  0  0  0  0  0  0  0  0  0  0  0
   19.8541   71.3846   -9.2409 H   0  0  0  0  0  0  0  0  0  0  0  0
   23.4078   71.9811   -0.1970 O   0  0  0  0  0  0  0  0  0  0  0  0
   23.3098   70.8600    0.9637 P   0  0  2  0  0  0  0  0  0  0  0  0
   24.6289   69.9549    0.7160 O   0  0  0  0  0  0  0  0  0  0  0  0
   22.0221   70.0882    0.9673 O   0  0  0  0  0  0  0  0  0  0  0  0
   23.6153   71.6591    2.3314 O   0  0  0  0  0  0  0  0  0  0  0  0
   22.5544   73.6328    3.0982 O   0  0  0  0  0  0  0  0  0  0  0  0
   26.2785   73.9412    4.8601 O   0  0  0  0  0  0  0  0  0  0  0  0
   26.0191   73.0380    2.0940 O   0  0  0  0  0  0  0  0  0  0  0  0
   23.9719   73.1646    6.4499 O   0  0  0  0  0  0  0  0  0  0  0  0
   25.1342   73.2630    4.3417 C   0  0  2  0  0  0  0  0  0  0  0  0
   24.9636   73.6051    2.8614 C   0  0  2  0  0  0  0  0  0  0  0  0
   23.9111   73.7223    5.1385 C   0  0  1  0  0  0  0  0  0  0  0  0
   23.6269   73.0855    2.3303 C   0  0  1  0  0  0  0  0  0  0  0  0
   22.6128   73.2705    4.4760 C   0  0  1  0  0  0  0  0  0  0  0  0
   27.0683   73.6651    4.3689 H   0  0  0  0  0  0  0  0  0  0  0  0
   26.8703   73.3632    2.4257 H   0  0  0  0  0  0  0  0  0  0  0  0
   24.7937   73.4444    6.8825 H   0  0  0  0  0  0  0  0  0  0  0  0
   20.4055   74.0087    4.1859 O   0  0  0  0  0  0  0  0  0  0  0  0
   21.4096   74.4886    6.1760 O   0  0  0  0  0  0  0  0  0  0  0  0
   21.4406   73.9883    5.0617 C   0  0  0  0  0  0  0  0  0  0  0  0
  1  4  1  0
  1 24  1  0
  1  2  1  6
  1  3  2  0
 25 28  1  0
 25 24  1  0
 25 26  1  6
 25 27  2  0
  6 11  1  0
  6 12  1  0
 29 36  1  0
 29 37  1  0
  9  7  1  6
  7 13  1  0
 10  8  1  6
  8 14  1  0
  4  5  1  0
 36 28  1  1
 33 30  1  1
 30 38  1  0
 34 31  1  6
 31 39  1  0
 35 32  1  1
 32 40  1  0
 41 43  1  0
 15 19  2  0
 42 43  2  0
 16 22  2  0
 12 17  1  1
 17 19  1  0
 17 20  1  0
 18 19  1  0
 18 22  1  0
 18 23  1  0
  9 10  1  0
  9 11  1  0
 10 12  1  0
 11  5  1  1
 33 34  1  0
 33 35  1  0
 34 36  1  0
 35 37  1  0
 37 43  1  1
 20 21  2  0
 21 22  1  0
M  CHG  3   2  -1  26  -1  41  -1
M  END
>  <COMPND>  (146) 
    udp_gluA.pdb 

>  <AUTHOR>  (146) 
    GENERATED BY OPEN BABEL 3.1.1

>  <MASTER>  (146) 
        0    0    0    0    0    0    0    0   56    0   56    0

>  <minimizedAffinity>  (146) 
-6.85038

>  <CNNscore>  (146) 
0.5345105529

>  <CNNaffinity>  (146) 
4.1434226036

>  <CNN_VS>  (146) 
2.2147030830

>  <CNNaffinity_variance>  (146) 
0.0395034030

$$$$
147
     RDKit          3D

 43 45  0  0  0  0  0  0  0  0999 V2000
   24.0045   71.5835   -2.3346 P   0  0  2  0  0  0  0  0  0  0  0  0
   23.8025   73.0434   -3.0029 O   0  0  0  0  0  0  0  0  0  0  0  0
   25.3340   70.9418   -2.6041 O   0  0  0  0  0  0  0  0  0  0  0  0
   22.7088   70.7485   -2.8262 O   0  0  0  0  0  0  0  0  0  0  0  0
   21.7672   71.3930   -3.6644 C   0  0  0  0  0  0  0  0  0  0  0  0
   19.4356   71.9695   -3.7589 O   0  0  0  0  0  0  0  0  0  0  0  0
   19.3166   71.1892   -0.8661 O   0  0  0  0  0  0  0  0  0  0  0  0
   18.2683   69.0042   -2.1162 O   0  0  0  0  0  0  0  0  0  0  0  0
   20.0805   70.6141   -1.9264 C   0  0  1  0  0  0  0  0  0  0  0  0
   19.1845   69.8014   -2.8369 C   0  0  2  0  0  0  0  0  0  0  0  0
   20.5308   71.7412   -2.8457 C   0  0  1  0  0  0  0  0  0  0  0  0
   18.5008   70.8838   -3.6547 C   0  0  2  0  0  0  0  0  0  0  0  0
   19.0177   70.4881   -0.2654 H   0  0  0  0  0  0  0  0  0  0  0  0
   18.7524   68.3305   -1.6124 H   0  0  0  0  0  0  0  0  0  0  0  0
   16.1203   69.5077   -4.2998 O   0  0  0  0  0  0  0  0  0  0  0  0
   17.2781   69.2185   -8.7517 O   0  0  0  0  0  0  0  0  0  0  0  0
   18.1548   70.4373   -4.9744 N   0  0  0  0  0  0  0  0  0  0  0  0
   16.6997   69.3641   -6.5163 N   0  0  0  0  0  0  0  0  0  0  0  0
   16.9346   69.7546   -5.1913 C   0  0  0  0  0  0  0  0  0  0  0  0
   19.0180   70.6778   -6.0365 C   0  0  0  0  0  0  0  0  0  0  0  0
   18.7803   70.2996   -7.2940 C   0  0  0  0  0  0  0  0  0  0  0  0
   17.5280   69.5800   -7.6058 C   0  0  0  0  0  0  0  0  0  0  0  0
   15.8575   68.8853   -6.6916 H   0  0  0  0  0  0  0  0  0  0  0  0
   23.6916   71.8533   -0.7719 O   0  0  0  0  0  0  0  0  0  0  0  0
   23.5991   70.8379    0.4828 P   0  0  2  0  0  0  0  0  0  0  0  0
   25.1014   70.2449    0.5902 O   0  0  0  0  0  0  0  0  0  0  0  0
   22.5295   69.7926    0.3515 O   0  0  0  0  0  0  0  0  0  0  0  0
   23.4457   71.7943    1.7728 O   0  0  0  0  0  0  0  0  0  0  0  0
   21.8760   73.5406    1.4637 O   0  0  0  0  0  0  0  0  0  0  0  0
   23.5782   74.5716    5.0841 O   0  0  0  0  0  0  0  0  0  0  0  0
   25.2425   73.6008    2.8882 O   0  0  0  0  0  0  0  0  0  0  0  0
   20.9225   73.3918    5.0036 O   0  0  0  0  0  0  0  0  0  0  0  0
   23.1223   73.6823    4.0646 C   0  0  2  0  0  0  0  0  0  0  0  0
   23.8732   73.9672    2.7637 C   0  0  2  0  0  0  0  0  0  0  0  0
   21.6213   73.9114    3.8739 C   0  0  1  0  0  0  0  0  0  0  0  0
   23.2558   73.1969    1.5957 C   0  0  1  0  0  0  0  0  0  0  0  0
   21.1063   73.2133    2.6185 C   0  0  1  0  0  0  0  0  0  0  0  0
   24.5299   74.4440    5.2228 H   0  0  0  0  0  0  0  0  0  0  0  0
   25.6406   74.0856    3.6277 H   0  0  0  0  0  0  0  0  0  0  0  0
   21.2411   73.8278    5.8094 H   0  0  0  0  0  0  0  0  0  0  0  0
   19.4739   73.4658    0.9532 O   0  0  0  0  0  0  0  0  0  0  0  0
   18.9641   74.2420    3.0357 O   0  0  0  0  0  0  0  0  0  0  0  0
   19.7407   73.7031    2.2614 C   0  0  0  0  0  0  0  0  0  0  0  0
  1  4  1  0
  1 24  1  0
  1  2  1  6
  1  3  2  0
 25 28  1  0
 25 24  1  0
 25 26  1  1
 25 27  2  0
  6 11  1  0
  6 12  1  0
 29 36  1  0
 29 37  1  0
  9  7  1  1
  7 13  1  0
 10  8  1  1
  8 14  1  0
  4  5  1  0
 36 28  1  1
 33 30  1  1
 30 38  1  0
 34 31  1  1
 31 39  1  0
 35 32  1  1
 32 40  1  0
 41 43  1  0
 15 19  2  0
 42 43  2  0
 16 22  2  0
 12 17  1  6
 17 19  1  0
 17 20  1  0
 18 19  1  0
 18 22  1  0
 18 23  1  0
  9 10  1  0
  9 11  1  0
 10 12  1  0
 11  5  1  6
 33 34  1  0
 33 35  1  0
 34 36  1  0
 35 37  1  0
 37 43  1  6
 20 21  2  0
 21 22  1  0
M  CHG  3   2  -1  26  -1  41  -1
M  END
>  <COMPND>  (147) 
    udp_gluA.pdb 

>  <AUTHOR>  (147) 
    GENERATED BY OPEN BABEL 3.1.1

>  <MASTER>  (147) 
        0    0    0    0    0    0    0    0   56    0   56    0

>  <minimizedAffinity>  (147) 
-6.78113

>  <CNNscore>  (147) 
0.4649826884

>  <CNNaffinity>  (147) 
4.3884515762

>  <CNN_VS>  (147) 
2.0405540466

>  <CNNaffinity_variance>  (147) 
0.0251397602

$$$$
148
     RDKit          3D

 43 45  0  0  0  0  0  0  0  0999 V2000
   20.3340   74.5115   -1.9334 P   0  0  2  0  0  0  0  0  0  0  0  0
   20.3403   75.6370   -3.0962 O   0  0  0  0  0  0  0  0  0  0  0  0
   19.6522   74.9196   -0.6604 O   0  0  0  0  0  0  0  0  0  0  0  0
   21.8896   74.0891   -1.7931 O   0  0  0  0  0  0  0  0  0  0  0  0
   22.2728   73.2734   -0.7013 C   0  0  0  0  0  0  0  0  0  0  0  0
   24.5146   73.2234    0.1645 O   0  0  0  0  0  0  0  0  0  0  0  0
   24.9713   70.8934   -1.6669 O   0  0  0  0  0  0  0  0  0  0  0  0
   24.5924   69.6870    0.7491 O   0  0  0  0  0  0  0  0  0  0  0  0
   23.7988   71.2512   -0.9348 C   0  0  1  0  0  0  0  0  0  0  0  0
   23.9852   70.9441    0.5360 C   0  0  2  0  0  0  0  0  0  0  0  0
   23.6919   72.7700   -0.9322 C   0  0  1  0  0  0  0  0  0  0  0  0
   24.8590   72.1004    0.9913 C   0  0  2  0  0  0  0  0  0  0  0  0
   25.0610   69.9273   -1.6824 H   0  0  0  0  0  0  0  0  0  0  0  0
   23.9969   68.9843    0.4434 H   0  0  0  0  0  0  0  0  0  0  0  0
   26.7908   73.2995    2.6666 O   0  0  0  0  0  0  0  0  0  0  0  0
   23.8941   73.3869    6.2507 O   0  0  0  0  0  0  0  0  0  0  0  0
   24.6363   72.4472    2.3664 N   0  0  0  0  0  0  0  0  0  0  0  0
   25.3466   73.3410    4.4504 N   0  0  0  0  0  0  0  0  0  0  0  0
   25.6733   73.0457    3.1203 C   0  0  0  0  0  0  0  0  0  0  0  0
   23.4023   72.1960    2.9539 C   0  0  0  0  0  0  0  0  0  0  0  0
   23.1057   72.4832    4.2229 C   0  0  0  0  0  0  0  0  0  0  0  0
   24.1340   73.1094    5.0795 C   0  0  0  0  0  0  0  0  0  0  0  0
   26.0532   73.7563    4.9957 H   0  0  0  0  0  0  0  0  0  0  0  0
   19.6751   73.2324   -2.6700 O   0  0  0  0  0  0  0  0  0  0  0  0
   20.2145   72.3133   -3.8857 P   0  0  2  0  0  0  0  0  0  0  0  0
   20.8380   71.0260   -3.1277 O   0  0  0  0  0  0  0  0  0  0  0  0
   21.1716   73.0115   -4.8078 O   0  0  0  0  0  0  0  0  0  0  0  0
   18.8801   71.7573   -4.6017 O   0  0  0  0  0  0  0  0  0  0  0  0
   18.3527   69.7377   -5.7207 O   0  0  0  0  0  0  0  0  0  0  0  0
   16.3090   72.5166   -7.9941 O   0  0  0  0  0  0  0  0  0  0  0  0
   19.0134   73.0810   -7.0443 O   0  0  0  0  0  0  0  0  0  0  0  0
   14.8677   70.8074   -6.1361 O   0  0  0  0  0  0  0  0  0  0  0  0
   16.8713   71.9680   -6.8021 C   0  0  2  0  0  0  0  0  0  0  0  0
   18.3819   71.8078   -6.9756 C   0  0  2  0  0  0  0  0  0  0  0  0
   16.2169   70.6072   -6.5534 C   0  0  1  0  0  0  0  0  0  0  0  0
   18.9848   71.0148   -5.8152 C   0  0  1  0  0  0  0  0  0  0  0  0
   16.9521   69.8254   -5.4686 C   0  0  1  0  0  0  0  0  0  0  0  0
   16.7099   73.3820   -8.1724 H   0  0  0  0  0  0  0  0  0  0  0  0
   18.6355   73.5898   -7.7783 H   0  0  0  0  0  0  0  0  0  0  0  0
   14.3887   71.3040   -6.8178 H   0  0  0  0  0  0  0  0  0  0  0  0
   15.2972   68.2603   -6.0284 O   0  0  0  0  0  0  0  0  0  0  0  0
   17.1784   67.4669   -5.0131 O   0  0  0  0  0  0  0  0  0  0  0  0
   16.5221   68.3945   -5.4622 C   0  0  0  0  0  0  0  0  0  0  0  0
  1  4  1  0
  1 24  1  0
  1  2  1  6
  1  3  2  0
 25 28  1  0
 25 24  1  0
 25 26  1  1
 25 27  2  0
  6 11  1  0
  6 12  1  0
 29 36  1  0
 29 37  1  0
  9  7  1  6
  7 13  1  0
 10  8  1  6
  8 14  1  0
  4  5  1  0
 36 28  1  1
 33 30  1  6
 30 38  1  0
 34 31  1  1
 31 39  1  0
 35 32  1  1
 32 40  1  0
 41 43  1  0
 15 19  2  0
 42 43  2  0
 16 22  2  0
 12 17  1  1
 17 19  1  0
 17 20  1  0
 18 19  1  0
 18 22  1  0
 18 23  1  0
  9 10  1  0
  9 11  1  0
 10 12  1  0
 11  5  1  1
 33 34  1  0
 33 35  1  0
 34 36  1  0
 35 37  1  0
 37 43  1  6
 20 21  2  0
 21 22  1  0
M  CHG  3   2  -1  26  -1  41  -1
M  END
>  <COMPND>  (148) 
    udp_gluA.pdb 

>  <AUTHOR>  (148) 
    GENERATED BY OPEN BABEL 3.1.1

>  <MASTER>  (148) 
        0    0    0    0    0    0    0    0   56    0   56    0

>  <minimizedAffinity>  (148) 
-6.75595

>  <CNNscore>  (148) 
0.4509953856

>  <CNNaffinity>  (148) 
4.2261419296

>  <CNN_VS>  (148) 
1.9059704542

>  <CNNaffinity_variance>  (148) 
0.2096530944

$$$$
149
     RDKit          3D

 43 45  0  0  0  0  0  0  0  0999 V2000
   17.2600   70.0679   -2.3081 P   0  0  2  0  0  0  0  0  0  0  0  0
   17.1382   68.6138   -1.6084 O   0  0  0  0  0  0  0  0  0  0  0  0
   16.1125   70.9974   -2.0413 O   0  0  0  0  0  0  0  0  0  0  0  0
   17.5413   69.7277   -3.8647 O   0  0  0  0  0  0  0  0  0  0  0  0
   16.5514   69.0244   -4.5927 C   0  0  0  0  0  0  0  0  0  0  0  0
   16.7300   71.1641   -5.6732 O   0  0  0  0  0  0  0  0  0  0  0  0
   14.9029   70.0482   -7.7727 O   0  0  0  0  0  0  0  0  0  0  0  0
   17.3538   69.8565   -8.9528 O   0  0  0  0  0  0  0  0  0  0  0  0
   15.9347   69.3951   -7.0330 C   0  0  1  0  0  0  0  0  0  0  0  0
   17.2952   69.8219   -7.5421 C   0  0  2  0  0  0  0  0  0  0  0  0
   15.9309   69.9624   -5.6201 C   0  0  1  0  0  0  0  0  0  0  0  0
   17.4486   71.1978   -6.9166 C   0  0  2  0  0  0  0  0  0  0  0  0
   14.8858   69.7021   -8.6792 H   0  0  0  0  0  0  0  0  0  0  0  0
   17.2515   68.9570   -9.3027 H   0  0  0  0  0  0  0  0  0  0  0  0
   18.4229   73.8328   -6.6274 O   0  0  0  0  0  0  0  0  0  0  0  0
   22.7302   72.3565   -5.9121 O   0  0  0  0  0  0  0  0  0  0  0  0
   18.8202   71.5307   -6.6543 N   0  0  0  0  0  0  0  0  0  0  0  0
   20.5675   73.0951   -6.2724 N   0  0  0  0  0  0  0  0  0  0  0  0
   19.2056   72.8861   -6.5267 C   0  0  0  0  0  0  0  0  0  0  0  0
   19.7663   70.5212   -6.5247 C   0  0  0  0  0  0  0  0  0  0  0  0
   21.0609   70.7360   -6.2822 C   0  0  0  0  0  0  0  0  0  0  0  0
   21.5462   72.1239   -6.1360 C   0  0  0  0  0  0  0  0  0  0  0  0
   20.8600   74.0308   -6.1816 H   0  0  0  0  0  0  0  0  0  0  0  0
   18.6942   70.6019   -1.7879 O   0  0  0  0  0  0  0  0  0  0  0  0
   19.3761   72.0653   -1.8721 P   0  0  2  0  0  0  0  0  0  0  0  0
   18.5273   72.9312   -0.7996 O   0  0  0  0  0  0  0  0  0  0  0  0
   19.4074   72.6515   -3.2539 O   0  0  0  0  0  0  0  0  0  0  0  0
   20.8263   71.8810   -1.1900 O   0  0  0  0  0  0  0  0  0  0  0  0
   22.7073   71.1929   -2.4540 O   0  0  0  0  0  0  0  0  0  0  0  0
   23.9128   70.3078    1.3972 O   0  0  0  0  0  0  0  0  0  0  0  0
   21.1857   69.7233    0.5279 O   0  0  0  0  0  0  0  0  0  0  0  0
   24.9837   72.6408    0.0329 O   0  0  0  0  0  0  0  0  0  0  0  0
   23.2206   71.0365    0.3834 C   0  0  2  0  0  0  0  0  0  0  0  0
   22.2460   70.1068   -0.3400 C   0  0  2  0  0  0  0  0  0  0  0  0
   24.2594   71.5857   -0.5970 C   0  0  1  0  0  0  0  0  0  0  0  0
   21.6564   70.7871   -1.5763 C   0  0  1  0  0  0  0  0  0  0  0  0
   23.5994   72.1330   -1.8593 C   0  0  1  0  0  0  0  0  0  0  0  0
   23.2727   69.9492    2.0320 H   0  0  0  0  0  0  0  0  0  0  0  0
   21.5527   69.2912    1.3147 H   0  0  0  0  0  0  0  0  0  0  0  0
   25.4085   72.3057    0.8379 H   0  0  0  0  0  0  0  0  0  0  0  0
   25.3114   71.2222   -3.1788 O   0  0  0  0  0  0  0  0  0  0  0  0
   24.7941   73.4171   -3.5161 O   0  0  0  0  0  0  0  0  0  0  0  0
   24.6135   72.3587   -2.9330 C   0  0  0  0  0  0  0  0  0  0  0  0
  1  4  1  0
  1 24  1  0
  1  2  1  1
  1  3  2  0
 25 28  1  0
 25 24  1  0
 25 26  1  1
 25 27  2  0
  6 11  1  0
  6 12  1  0
 29 36  1  0
 29 37  1  0
  9  7  1  6
  7 13  1  0
 10  8  1  6
  8 14  1  0
  4  5  1  0
 36 28  1  1
 33 30  1  1
 30 38  1  0
 34 31  1  1
 31 39  1  0
 35 32  1  1
 32 40  1  0
 41 43  1  0
 15 19  2  0
 42 43  2  0
 16 22  2  0
 12 17  1  1
 17 19  1  0
 17 20  1  0
 18 19  1  0
 18 22  1  0
 18 23  1  0
  9 10  1  0
  9 11  1  0
 10 12  1  0
 11  5  1  1
 33 34  1  0
 33 35  1  0
 34 36  1  0
 35 37  1  0
 37 43  1  6
 20 21  2  0
 21 22  1  0
M  CHG  3   2  -1  26  -1  41  -1
M  END
>  <COMPND>  (149) 
    udp_gluA.pdb 

>  <AUTHOR>  (149) 
    GENERATED BY OPEN BABEL 3.1.1

>  <MASTER>  (149) 
        0    0    0    0    0    0    0    0   56    0   56    0

>  <minimizedAffinity>  (149) 
-7.94774

>  <CNNscore>  (149) 
0.4218316078

>  <CNNaffinity>  (149) 
4.2024769783

>  <CNN_VS>  (149) 
1.7727376223

>  <CNNaffinity_variance>  (149) 
0.9878267050

$$$$
150
     RDKit          3D

 43 45  0  0  0  0  0  0  0  0999 V2000
   22.9610   71.6433   -2.0711 P   0  0  2  0  0  0  0  0  0  0  0  0
   23.0267   73.1888   -2.5466 O   0  0  0  0  0  0  0  0  0  0  0  0
   24.1235   70.7979   -2.5020 O   0  0  0  0  0  0  0  0  0  0  0  0
   21.5055   71.1443   -2.5718 O   0  0  0  0  0  0  0  0  0  0  0  0
   20.8597   71.8696   -3.6021 C   0  0  0  0  0  0  0  0  0  0  0  0
   20.3112   70.6920   -5.6245 O   0  0  0  0  0  0  0  0  0  0  0  0
   22.7259   72.0046   -6.8234 O   0  0  0  0  0  0  0  0  0  0  0  0
   20.6789   73.5214   -7.7955 O   0  0  0  0  0  0  0  0  0  0  0  0
   21.7913   72.5240   -5.8772 C   0  0  1  0  0  0  0  0  0  0  0  0
   20.4840   72.8608   -6.5626 C   0  0  2  0  0  0  0  0  0  0  0  0
   21.3815   71.3881   -4.9498 C   0  0  1  0  0  0  0  0  0  0  0  0
   19.8519   71.4893   -6.7275 C   0  0  2  0  0  0  0  0  0  0  0  0
   23.0024   72.7123   -7.4271 H   0  0  0  0  0  0  0  0  0  0  0  0
   21.0832   74.3894   -7.6369 H   0  0  0  0  0  0  0  0  0  0  0  0
   18.1678   69.7703   -8.2059 O   0  0  0  0  0  0  0  0  0  0  0  0
   14.3624   71.7757   -6.5502 O   0  0  0  0  0  0  0  0  0  0  0  0
   18.4174   71.5402   -6.7014 N   0  0  0  0  0  0  0  0  0  0  0  0
   16.2741   70.7714   -7.3806 N   0  0  0  0  0  0  0  0  0  0  0  0
   17.6645   70.6313   -7.4818 C   0  0  0  0  0  0  0  0  0  0  0  0
   17.7712   72.4809   -5.9087 C   0  0  0  0  0  0  0  0  0  0  0  0
   16.4450   72.6023   -5.8225 C   0  0  0  0  0  0  0  0  0  0  0  0
   15.5855   71.6915   -6.6068 C   0  0  0  0  0  0  0  0  0  0  0  0
   15.7288   70.1510   -7.9164 H   0  0  0  0  0  0  0  0  0  0  0  0
   22.7729   71.7638   -0.4702 O   0  0  0  0  0  0  0  0  0  0  0  0
   22.7510   70.6322    0.6841 P   0  0  2  0  0  0  0  0  0  0  0  0
   24.2316   69.9839    0.5947 O   0  0  0  0  0  0  0  0  0  0  0  0
   21.6323   69.6396    0.5523 O   0  0  0  0  0  0  0  0  0  0  0  0
   22.7518   71.4599    2.0688 O   0  0  0  0  0  0  0  0  0  0  0  0
   22.0572   73.5278    2.9909 O   0  0  0  0  0  0  0  0  0  0  0  0
   26.0545   73.4439    4.0314 O   0  0  0  0  0  0  0  0  0  0  0  0
   25.1978   72.5866    1.3732 O   0  0  0  0  0  0  0  0  0  0  0  0
   24.0148   72.8991    6.0298 O   0  0  0  0  0  0  0  0  0  0  0  0
   24.7712   72.8892    3.7423 C   0  0  2  0  0  0  0  0  0  0  0  0
   24.3655   73.2548    2.3143 C   0  0  2  0  0  0  0  0  0  0  0  0
   23.7695   73.4671    4.7446 C   0  0  1  0  0  0  0  0  0  0  0  0
   22.9079   72.8776    2.0460 C   0  0  1  0  0  0  0  0  0  0  0  0
   22.3321   73.1541    4.3392 C   0  0  1  0  0  0  0  0  0  0  0  0
   26.7076   73.0909    3.4068 H   0  0  0  0  0  0  0  0  0  0  0  0
   26.1243   72.8211    1.5378 H   0  0  0  0  0  0  0  0  0  0  0  0
   24.9265   73.0911    6.2995 H   0  0  0  0  0  0  0  0  0  0  0  0
   21.9963   75.0472    5.6826 O   0  0  0  0  0  0  0  0  0  0  0  0
   20.1747   73.7487    5.2410 O   0  0  0  0  0  0  0  0  0  0  0  0
   21.3675   73.9850    5.1210 C   0  0  0  0  0  0  0  0  0  0  0  0
  1  4  1  0
  1 24  1  0
  1  2  1  6
  1  3  2  0
 25 28  1  0
 25 24  1  0
 25 26  1  1
 25 27  2  0
  6 11  1  0
  6 12  1  0
 29 36  1  0
 29 37  1  0
  9  7  1  6
  7 13  1  0
 10  8  1  6
  8 14  1  0
  4  5  1  0
 36 28  1  1
 33 30  1  1
 30 38  1  0
 34 31  1  6
 31 39  1  0
 35 32  1  1
 32 40  1  0
 41 43  1  0
 15 19  2  0
 42 43  2  0
 16 22  2  0
 12 17  1  1
 17 19  1  0
 17 20  1  0
 18 19  1  0
 18 22  1  0
 18 23  1  0
  9 10  1  0
  9 11  1  0
 10 12  1  0
 11  5  1  1
 33 34  1  0
 33 35  1  0
 34 36  1  0
 35 37  1  0
 37 43  1  1
 20 21  2  0
 21 22  1  0
M  CHG  3   2  -1  26  -1  41  -1
M  END
>  <COMPND>  (150) 
    udp_gluA.pdb 

>  <AUTHOR>  (150) 
    GENERATED BY OPEN BABEL 3.1.1

>  <MASTER>  (150) 
        0    0    0    0    0    0    0    0   56    0   56    0

>  <minimizedAffinity>  (150) 
-7.05039

>  <CNNscore>  (150) 
0.4181750715

>  <CNNaffinity>  (150) 
4.2757596970

>  <CNN_VS>  (150) 
1.7880160809

>  <CNNaffinity_variance>  (150) 
0.0964494199

$$$$
151
     RDKit          3D

 43 45  0  0  0  0  0  0  0  0999 V2000
   18.4153   73.0503   -3.1694 P   0  0  2  0  0  0  0  0  0  0  0  0
   18.4999   74.0826   -1.9260 O   0  0  0  0  0  0  0  0  0  0  0  0
   17.0265   72.7579   -3.6568 O   0  0  0  0  0  0  0  0  0  0  0  0
   19.2688   71.7697   -2.6700 O   0  0  0  0  0  0  0  0  0  0  0  0
   19.4621   71.5866   -1.2794 C   0  0  0  0  0  0  0  0  0  0  0  0
   21.5353   70.6721   -2.0813 O   0  0  0  0  0  0  0  0  0  0  0  0
   21.7852   69.3681    0.6073 O   0  0  0  0  0  0  0  0  0  0  0  0
   23.4482   71.5176    0.8308 O   0  0  0  0  0  0  0  0  0  0  0  0
   21.2482   70.6473    0.2698 C   0  0  1  0  0  0  0  0  0  0  0  0
   22.3649   71.6113   -0.0706 C   0  0  2  0  0  0  0  0  0  0  0  0
   20.5236   70.5158   -1.0629 C   0  0  1  0  0  0  0  0  0  0  0  0
   22.7367   71.1788   -1.4786 C   0  0  2  0  0  0  0  0  0  0  0  0
   22.2530   69.4270    1.4554 H   0  0  0  0  0  0  0  0  0  0  0  0
   23.1608   71.8040    1.7125 H   0  0  0  0  0  0  0  0  0  0  0  0
   25.1140   71.0849   -3.0005 O   0  0  0  0  0  0  0  0  0  0  0  0
   24.5498   75.4114   -4.4862 O   0  0  0  0  0  0  0  0  0  0  0  0
   23.2345   72.2664   -2.2725 N   0  0  0  0  0  0  0  0  0  0  0  0
   24.8312   73.2402   -3.7382 N   0  0  0  0  0  0  0  0  0  0  0  0
   24.4391   72.1162   -2.9993 C   0  0  0  0  0  0  0  0  0  0  0  0
   22.5316   73.4639   -2.3268 C   0  0  0  0  0  0  0  0  0  0  0  0
   22.9179   74.5265   -3.0357 C   0  0  0  0  0  0  0  0  0  0  0  0
   24.1662   74.4526   -3.8230 C   0  0  0  0  0  0  0  0  0  0  0  0
   25.6679   73.1602   -4.2509 H   0  0  0  0  0  0  0  0  0  0  0  0
   19.3864   73.7274   -4.2700 O   0  0  0  0  0  0  0  0  0  0  0  0
   20.0209   73.1347   -5.6338 P   0  0  2  0  0  0  0  0  0  0  0  0
   21.2222   72.1889   -5.1023 O   0  0  0  0  0  0  0  0  0  0  0  0
   20.4489   74.1826   -6.6200 O   0  0  0  0  0  0  0  0  0  0  0  0
   18.9088   72.1067   -6.1895 O   0  0  0  0  0  0  0  0  0  0  0  0
   18.3289   69.9507   -5.3992 O   0  0  0  0  0  0  0  0  0  0  0  0
   17.5696   69.5956   -9.4446 O   0  0  0  0  0  0  0  0  0  0  0  0
   19.9637   70.9798   -8.5033 O   0  0  0  0  0  0  0  0  0  0  0  0
   15.3693   69.8861   -7.5670 O   0  0  0  0  0  0  0  0  0  0  0  0
   17.6643   70.2718   -8.1910 C   0  0  2  0  0  0  0  0  0  0  0  0
   19.1033   70.2018   -7.6792 C   0  0  2  0  0  0  0  0  0  0  0  0
   16.7158   69.5813   -7.2084 C   0  0  1  0  0  0  0  0  0  0  0  0
   19.1976   70.7107   -6.2402 C   0  0  1  0  0  0  0  0  0  0  0  0
   16.9576   70.0515   -5.7769 C   0  0  1  0  0  0  0  0  0  0  0  0
   18.1639   70.0170  -10.0853 H   0  0  0  0  0  0  0  0  0  0  0  0
   19.9087   70.6625   -9.4179 H   0  0  0  0  0  0  0  0  0  0  0  0
   15.2024   69.5921   -8.4761 H   0  0  0  0  0  0  0  0  0  0  0  0
   16.0677   67.9254   -5.3421 O   0  0  0  0  0  0  0  0  0  0  0  0
   15.9440   69.4672   -3.6668 O   0  0  0  0  0  0  0  0  0  0  0  0
   16.2736   69.1513   -4.8002 C   0  0  0  0  0  0  0  0  0  0  0  0
  1  4  1  0
  1 24  1  0
  1  2  1  1
  1  3  2  0
 25 28  1  0
 25 24  1  0
 25 26  1  1
 25 27  2  0
  6 11  1  0
  6 12  1  0
 29 36  1  0
 29 37  1  0
  9  7  1  6
  7 13  1  0
 10  8  1  1
  8 14  1  0
  4  5  1  0
 36 28  1  6
 33 30  1  6
 30 38  1  0
 34 31  1  6
 31 39  1  0
 35 32  1  6
 32 40  1  0
 41 43  1  0
 15 19  2  0
 42 43  2  0
 16 22  2  0
 12 17  1  6
 17 19  1  0
 17 20  1  0
 18 19  1  0
 18 22  1  0
 18 23  1  0
  9 10  1  0
  9 11  1  0
 10 12  1  0
 11  5  1  6
 33 34  1  0
 33 35  1  0
 34 36  1  0
 35 37  1  0
 37 43  1  1
 20 21  2  0
 21 22  1  0
M  CHG  3   2  -1  26  -1  41  -1
M  END
>  <COMPND>  (151) 
    udp_gluA.pdb 

>  <AUTHOR>  (151) 
    GENERATED BY OPEN BABEL 3.1.1

>  <MASTER>  (151) 
        0    0    0    0    0    0    0    0   56    0   56    0

>  <minimizedAffinity>  (151) 
-7.58713

>  <CNNscore>  (151) 
0.4019228816

>  <CNNaffinity>  (151) 
4.0618638992

>  <CNN_VS>  (151) 
1.6325560808

>  <CNNaffinity_variance>  (151) 
0.6048115492

$$$$
152
     RDKit          3D

 43 45  0  0  0  0  0  0  0  0999 V2000
   22.3307   72.6781   -1.2824 P   0  0  2  0  0  0  0  0  0  0  0  0
   21.3301   71.4831   -1.7180 O   0  0  0  0  0  0  0  0  0  0  0  0
   21.7860   73.6132   -0.2429 O   0  0  0  0  0  0  0  0  0  0  0  0
   22.7563   73.3597   -2.6868 O   0  0  0  0  0  0  0  0  0  0  0  0
   21.8140   73.3763   -3.7433 C   0  0  0  0  0  0  0  0  0  0  0  0
   21.7967   71.3581   -5.0487 O   0  0  0  0  0  0  0  0  0  0  0  0
   23.1126   72.9660   -7.2108 O   0  0  0  0  0  0  0  0  0  0  0  0
   20.5143   72.8750   -8.0335 O   0  0  0  0  0  0  0  0  0  0  0  0
   22.1151   73.3629   -6.2695 C   0  0  1  0  0  0  0  0  0  0  0  0
   20.7728   72.7741   -6.6487 C   0  0  2  0  0  0  0  0  0  0  0  0
   22.4090   72.6622   -4.9500 C   0  0  1  0  0  0  0  0  0  0  0  0
   20.9170   71.3350   -6.1840 C   0  0  2  0  0  0  0  0  0  0  0  0
   22.9457   73.4011   -8.0620 H   0  0  0  0  0  0  0  0  0  0  0  0
   20.4307   73.8101   -8.2795 H   0  0  0  0  0  0  0  0  0  0  0  0
   19.1215   70.0646   -7.9556 O   0  0  0  0  0  0  0  0  0  0  0  0
   16.1334   69.1563   -4.5659 O   0  0  0  0  0  0  0  0  0  0  0  0
   19.6627   70.7577   -5.7911 N   0  0  0  0  0  0  0  0  0  0  0  0
   17.6345   69.6143   -6.2658 N   0  0  0  0  0  0  0  0  0  0  0  0
   18.8343   70.1431   -6.7597 C   0  0  0  0  0  0  0  0  0  0  0  0
   19.2652   70.8022   -4.4603 C   0  0  0  0  0  0  0  0  0  0  0  0
   18.1187   70.2937   -4.0046 C   0  0  0  0  0  0  0  0  0  0  0  0
   17.1956   69.6349   -4.9518 C   0  0  0  0  0  0  0  0  0  0  0  0
   17.0402   69.1831   -6.9218 H   0  0  0  0  0  0  0  0  0  0  0  0
   23.6699   71.8875   -0.8416 O   0  0  0  0  0  0  0  0  0  0  0  0
   23.9550   70.8930    0.4007 P   0  0  2  0  0  0  0  0  0  0  0  0
   25.3632   70.2001    0.0041 O   0  0  0  0  0  0  0  0  0  0  0  0
   22.8446   69.9217    0.6793 O   0  0  0  0  0  0  0  0  0  0  0  0
   24.3147   71.8700    1.6330 O   0  0  0  0  0  0  0  0  0  0  0  0
   24.5259   74.2288    1.6087 O   0  0  0  0  0  0  0  0  0  0  0  0
   27.1178   73.1840    4.6515 O   0  0  0  0  0  0  0  0  0  0  0  0
   27.0309   71.6279    2.1805 O   0  0  0  0  0  0  0  0  0  0  0  0
   24.5192   74.3274    5.2765 O   0  0  0  0  0  0  0  0  0  0  0  0
   25.9618   73.0576    3.8234 C   0  0  2  0  0  0  0  0  0  0  0  0
   26.3922   72.8858    2.3665 C   0  0  2  0  0  0  0  0  0  0  0  0
   25.1236   74.3278    3.9845 C   0  0  1  0  0  0  0  0  0  0  0  0
   25.1896   72.9775    1.4262 C   0  0  1  0  0  0  0  0  0  0  0  0
   24.0225   74.4059    2.9310 C   0  0  1  0  0  0  0  0  0  0  0  0
   27.6660   72.3881    4.5654 H   0  0  0  0  0  0  0  0  0  0  0  0
   27.7949   71.5628    2.7742 H   0  0  0  0  0  0  0  0  0  0  0  0
   25.2093   74.2779    5.9563 H   0  0  0  0  0  0  0  0  0  0  0  0
   22.3977   75.8824    3.7565 O   0  0  0  0  0  0  0  0  0  0  0  0
   23.8175   76.6838    2.1625 O   0  0  0  0  0  0  0  0  0  0  0  0
   23.4300   75.7767    2.8835 C   0  0  0  0  0  0  0  0  0  0  0  0
  1  4  1  0
  1 24  1  0
  1  2  1  6
  1  3  2  0
 25 28  1  0
 25 24  1  0
 25 26  1  6
 25 27  2  0
  6 11  1  0
  6 12  1  0
 29 36  1  0
 29 37  1  0
  9  7  1  6
  7 13  1  0
 10  8  1  6
  8 14  1  0
  4  5  1  0
 36 28  1  1
 33 30  1  1
 30 38  1  0
 34 31  1  1
 31 39  1  0
 35 32  1  1
 32 40  1  0
 41 43  1  0
 15 19  2  0
 42 43  2  0
 16 22  2  0
 12 17  1  1
 17 19  1  0
 17 20  1  0
 18 19  1  0
 18 22  1  0
 18 23  1  0
  9 10  1  0
  9 11  1  0
 10 12  1  0
 11  5  1  1
 33 34  1  0
 33 35  1  0
 34 36  1  0
 35 37  1  0
 37 43  1  6
 20 21  2  0
 21 22  1  0
M  CHG  3   2  -1  26  -1  41  -1
M  END
>  <COMPND>  (152) 
    udp_gluA.pdb 

>  <AUTHOR>  (152) 
    GENERATED BY OPEN BABEL 3.1.1

>  <MASTER>  (152) 
        0    0    0    0    0    0    0    0   56    0   56    0

>  <minimizedAffinity>  (152) 
-6.27392

>  <CNNscore>  (152) 
0.3981394768

>  <CNNaffinity>  (152) 
4.2260746956

>  <CNN_VS>  (152) 
1.6825671196

>  <CNNaffinity_variance>  (152) 
0.0134479925

$$$$
153
     RDKit          3D

 43 45  0  0  0  0  0  0  0  0999 V2000
   17.9956   70.0067   -2.3892 P   0  0  2  0  0  0  0  0  0  0  0  0
   17.4246   68.6204   -1.7800 O   0  0  0  0  0  0  0  0  0  0  0  0
   17.2674   71.2413   -1.9450 O   0  0  0  0  0  0  0  0  0  0  0  0
   18.0272   69.7456   -3.9857 O   0  0  0  0  0  0  0  0  0  0  0  0
   16.9584   69.0278   -4.5747 C   0  0  0  0  0  0  0  0  0  0  0  0
   17.0060   71.1518   -5.6990 O   0  0  0  0  0  0  0  0  0  0  0  0
   15.0821   69.9478   -7.6587 O   0  0  0  0  0  0  0  0  0  0  0  0
   17.4575   69.8031   -8.9901 O   0  0  0  0  0  0  0  0  0  0  0  0
   16.1774   69.3371   -6.9761 C   0  0  1  0  0  0  0  0  0  0  0  0
   17.4898   69.7924   -7.5782 C   0  0  2  0  0  0  0  0  0  0  0  0
   16.2470   69.9295   -5.5752 C   0  0  1  0  0  0  0  0  0  0  0  0
   17.6428   71.1830   -6.9862 C   0  0  2  0  0  0  0  0  0  0  0  0
   15.0175   69.5851   -8.5564 H   0  0  0  0  0  0  0  0  0  0  0  0
   17.3592   68.8950   -9.3182 H   0  0  0  0  0  0  0  0  0  0  0  0
   18.5301   73.8254   -6.5308 O   0  0  0  0  0  0  0  0  0  0  0  0
   22.9433   72.5075   -6.3551 O   0  0  0  0  0  0  0  0  0  0  0  0
   19.0181   71.5586   -6.8178 N   0  0  0  0  0  0  0  0  0  0  0  0
   20.7273   73.1666   -6.4447 N   0  0  0  0  0  0  0  0  0  0  0  0
   19.3573   72.9140   -6.5940 C   0  0  0  0  0  0  0  0  0  0  0  0
   20.0133   70.5904   -6.8732 C   0  0  0  0  0  0  0  0  0  0  0  0
   21.3150   70.8465   -6.7290 C   0  0  0  0  0  0  0  0  0  0  0  0
   21.7540   72.2375   -6.4926 C   0  0  0  0  0  0  0  0  0  0  0  0
   20.9881   74.1033   -6.2900 H   0  0  0  0  0  0  0  0  0  0  0  0
   19.5596   69.9646   -1.9830 O   0  0  0  0  0  0  0  0  0  0  0  0
   20.8263   70.7933   -2.5509 P   0  0  2  0  0  0  0  0  0  0  0  0
   20.1376   72.0344   -3.3291 O   0  0  0  0  0  0  0  0  0  0  0  0
   21.7664   69.9804   -3.3931 O   0  0  0  0  0  0  0  0  0  0  0  0
   21.5010   71.4560   -1.2440 O   0  0  0  0  0  0  0  0  0  0  0  0
   21.8928   70.8486    1.0114 O   0  0  0  0  0  0  0  0  0  0  0  0
   20.4958   74.7159    1.4127 O   0  0  0  0  0  0  0  0  0  0  0  0
   19.2361   72.8745   -0.4733 O   0  0  0  0  0  0  0  0  0  0  0  0
   23.3313   74.1501    1.7137 O   0  0  0  0  0  0  0  0  0  0  0  0
   21.1741   73.6352    0.7724 C   0  0  2  0  0  0  0  0  0  0  0  0
   20.1892   72.4949    0.5126 C   0  0  2  0  0  0  0  0  0  0  0  0
   22.2982   73.1668    1.6992 C   0  0  1  0  0  0  0  0  0  0  0  0
   20.9204   71.2374    0.0405 C   0  0  1  0  0  0  0  0  0  0  0  0
   22.8921   71.8421    1.2292 C   0  0  1  0  0  0  0  0  0  0  0  0
   19.7768   75.0301    0.8421 H   0  0  0  0  0  0  0  0  0  0  0  0
   18.7686   73.6720   -0.1804 H   0  0  0  0  0  0  0  0  0  0  0  0
   22.9664   74.9982    2.0109 H   0  0  0  0  0  0  0  0  0  0  0  0
   23.4025   71.7209    3.5154 O   0  0  0  0  0  0  0  0  0  0  0  0
   24.6239   70.4090    2.1060 O   0  0  0  0  0  0  0  0  0  0  0  0
   23.7428   71.2339    2.2964 C   0  0  0  0  0  0  0  0  0  0  0  0
  1  4  1  0
  1 24  1  0
  1  2  1  1
  1  3  2  0
 25 28  1  0
 25 24  1  0
 25 26  1  6
 25 27  2  0
  6 11  1  0
  6 12  1  0
 29 36  1  0
 29 37  1  0
  9  7  1  6
  7 13  1  0
 10  8  1  6
  8 14  1  0
  4  5  1  0
 36 28  1  6
 33 30  1  1
 30 38  1  0
 34 31  1  6
 31 39  1  0
 35 32  1  6
 32 40  1  0
 41 43  1  0
 15 19  2  0
 42 43  2  0
 16 22  2  0
 12 17  1  1
 17 19  1  0
 17 20  1  0
 18 19  1  0
 18 22  1  0
 18 23  1  0
  9 10  1  0
  9 11  1  0
 10 12  1  0
 11  5  1  1
 33 34  1  0
 33 35  1  0
 34 36  1  0
 35 37  1  0
 37 43  1  1
 20 21  2  0
 21 22  1  0
M  CHG  3   2  -1  26  -1  41  -1
M  END
>  <COMPND>  (153) 
    udp_gluA.pdb 

>  <AUTHOR>  (153) 
    GENERATED BY OPEN BABEL 3.1.1

>  <MASTER>  (153) 
        0    0    0    0    0    0    0    0   56    0   56    0

>  <minimizedAffinity>  (153) 
-7.22657

>  <CNNscore>  (153) 
0.3970834613

>  <CNNaffinity>  (153) 
4.2114434242

>  <CNN_VS>  (153) 
1.6722944975

>  <CNNaffinity_variance>  (153) 
0.2299235165

$$$$
154
     RDKit          3D

 43 45  0  0  0  0  0  0  0  0999 V2000
   24.2532   72.4791   -3.1559 P   0  0  2  0  0  0  0  0  0  0  0  0
   23.2211   72.3362   -4.3942 O   0  0  0  0  0  0  0  0  0  0  0  0
   25.0260   71.2352   -2.8285 O   0  0  0  0  0  0  0  0  0  0  0  0
   23.3434   73.0766   -1.9588 O   0  0  0  0  0  0  0  0  0  0  0  0
   22.0128   73.4635   -2.2493 C   0  0  0  0  0  0  0  0  0  0  0  0
   19.8098   72.8217   -1.5333 O   0  0  0  0  0  0  0  0  0  0  0  0
   21.0847   72.0393    1.0656 O   0  0  0  0  0  0  0  0  0  0  0  0
   20.7823   69.6406   -0.1957 O   0  0  0  0  0  0  0  0  0  0  0  0
   21.5986   71.9300   -0.2620 C   0  0  1  0  0  0  0  0  0  0  0  0
   20.9155   70.7961   -0.9967 C   0  0  2  0  0  0  0  0  0  0  0  0
   21.1307   73.1469   -1.0485 C   0  0  1  0  0  0  0  0  0  0  0  0
   19.5759   71.4155   -1.3571 C   0  0  2  0  0  0  0  0  0  0  0  0
   21.3706   71.2727    1.5874 H   0  0  0  0  0  0  0  0  0  0  0  0
   21.6620   69.2840    0.0062 H   0  0  0  0  0  0  0  0  0  0  0  0
   17.9090   69.1393   -1.4864 O   0  0  0  0  0  0  0  0  0  0  0  0
   17.5479   69.4386   -6.0716 O   0  0  0  0  0  0  0  0  0  0  0  0
   19.0322   70.8769   -2.5716 N   0  0  0  0  0  0  0  0  0  0  0  0
   17.7316   69.2899   -3.7700 N   0  0  0  0  0  0  0  0  0  0  0  0
   18.2058   69.7292   -2.5270 C   0  0  0  0  0  0  0  0  0  0  0  0
   19.3170   71.4845   -3.7884 C   0  0  0  0  0  0  0  0  0  0  0  0
   18.8575   71.0543   -4.9651 C   0  0  0  0  0  0  0  0  0  0  0  0
   17.9879   69.8604   -5.0064 C   0  0  0  0  0  0  0  0  0  0  0  0
   17.1558   68.4912   -3.7646 H   0  0  0  0  0  0  0  0  0  0  0  0
   25.1635   73.7436   -3.5864 O   0  0  0  0  0  0  0  0  0  0  0  0
   24.7705   75.1411   -4.2979 P   0  0  2  0  0  0  0  0  0  0  0  0
   26.2051   75.7485   -4.7376 O   0  0  0  0  0  0  0  0  0  0  0  0
   23.9471   76.0583   -3.4408 O   0  0  0  0  0  0  0  0  0  0  0  0
   24.0681   74.7109   -5.6850 O   0  0  0  0  0  0  0  0  0  0  0  0
   23.8337   75.6409   -7.8504 O   0  0  0  0  0  0  0  0  0  0  0  0
   20.0279   74.1999   -7.1378 O   0  0  0  0  0  0  0  0  0  0  0  0
   21.5080   75.5788   -5.0301 O   0  0  0  0  0  0  0  0  0  0  0  0
   21.8169   72.7721   -8.9299 O   0  0  0  0  0  0  0  0  0  0  0  0
   21.4520   74.2227   -7.0411 C   0  0  2  0  0  0  0  0  0  0  0  0
   21.9003   75.5350   -6.3972 C   0  0  2  0  0  0  0  0  0  0  0  0
   22.0240   74.1011   -8.4553 C   0  0  1  0  0  0  0  0  0  0  0  0
   23.4185   75.6969   -6.4852 C   0  0  1  0  0  0  0  0  0  0  0  0
   23.5203   74.3997   -8.4786 C   0  0  1  0  0  0  0  0  0  0  0  0
   19.6421   74.2760   -6.2509 H   0  0  0  0  0  0  0  0  0  0  0  0
   20.5458   75.4763   -4.9668 H   0  0  0  0  0  0  0  0  0  0  0  0
   20.8685   72.5693   -8.9200 H   0  0  0  0  0  0  0  0  0  0  0  0
   24.8092   75.6871   -9.9560 O   0  0  0  0  0  0  0  0  0  0  0  0
   23.7077   73.8921  -10.8299 O   0  0  0  0  0  0  0  0  0  0  0  0
   23.9991   74.6024   -9.8793 C   0  0  0  0  0  0  0  0  0  0  0  0
  1  4  1  0
  1 24  1  0
  1  2  1  6
  1  3  2  0
 25 28  1  0
 25 24  1  0
 25 26  1  6
 25 27  2  0
  6 11  1  0
  6 12  1  0
 29 36  1  0
 29 37  1  0
  9  7  1  1
  7 13  1  0
 10  8  1  1
  8 14  1  0
  4  5  1  0
 36 28  1  1
 33 30  1  6
 30 38  1  0
 34 31  1  1
 31 39  1  0
 35 32  1  1
 32 40  1  0
 41 43  1  0
 15 19  2  0
 42 43  2  0
 16 22  2  0
 12 17  1  6
 17 19  1  0
 17 20  1  0
 18 19  1  0
 18 22  1  0
 18 23  1  0
  9 10  1  0
  9 11  1  0
 10 12  1  0
 11  5  1  6
 33 34  1  0
 33 35  1  0
 34 36  1  0
 35 37  1  0
 37 43  1  6
 20 21  2  0
 21 22  1  0
M  CHG  3   2  -1  26  -1  41  -1
M  END
>  <COMPND>  (154) 
    udp_gluA.pdb 

>  <AUTHOR>  (154) 
    GENERATED BY OPEN BABEL 3.1.1

>  <MASTER>  (154) 
        0    0    0    0    0    0    0    0   56    0   56    0

>  <minimizedAffinity>  (154) 
-6.43188

>  <CNNscore>  (154) 
0.3948425055

>  <CNNaffinity>  (154) 
4.0144219398

>  <CNN_VS>  (154) 
1.5850644112

>  <CNNaffinity_variance>  (154) 
0.2605908513

$$$$
155
     RDKit          3D

 43 45  0  0  0  0  0  0  0  0999 V2000
   21.3354   72.8358   -4.9412 P   0  0  2  0  0  0  0  0  0  0  0  0
   22.8415   73.4072   -5.0968 O   0  0  0  0  0  0  0  0  0  0  0  0
   20.2483   73.8199   -5.2599 O   0  0  0  0  0  0  0  0  0  0  0  0
   21.3071   72.2171   -3.4465 O   0  0  0  0  0  0  0  0  0  0  0  0
   20.8300   70.8958   -3.2705 C   0  0  0  0  0  0  0  0  0  0  0  0
   20.6441   70.3614   -0.9344 O   0  0  0  0  0  0  0  0  0  0  0  0
   18.1734   72.0605   -0.9330 O   0  0  0  0  0  0  0  0  0  0  0  0
   20.0410   73.7239    0.1537 O   0  0  0  0  0  0  0  0  0  0  0  0
   19.3911   72.2371   -1.6572 C   0  0  1  0  0  0  0  0  0  0  0  0
   20.4876   72.7167   -0.7298 C   0  0  2  0  0  0  0  0  0  0  0  0
   19.8986   70.8610   -2.0657 C   0  0  1  0  0  0  0  0  0  0  0  0
   20.8738   71.4361   -0.0094 C   0  0  2  0  0  0  0  0  0  0  0  0
   17.8299   72.9264   -0.6613 H   0  0  0  0  0  0  0  0  0  0  0  0
   19.8076   74.5182   -0.3530 H   0  0  0  0  0  0  0  0  0  0  0  0
   21.7675   71.5990    2.6648 O   0  0  0  0  0  0  0  0  0  0  0  0
   26.1919   71.3838    1.3913 O   0  0  0  0  0  0  0  0  0  0  0  0
   22.2537   71.4248    0.3863 N   0  0  0  0  0  0  0  0  0  0  0  0
   23.9703   71.4927    2.0279 N   0  0  0  0  0  0  0  0  0  0  0  0
   22.5959   71.5117    1.7565 C   0  0  0  0  0  0  0  0  0  0  0  0
   23.2506   71.3268   -0.5768 C   0  0  0  0  0  0  0  0  0  0  0  0
   24.5565   71.3098   -0.3027 C   0  0  0  0  0  0  0  0  0  0  0  0
   24.9987   71.3973    1.1044 C   0  0  0  0  0  0  0  0  0  0  0  0
   24.2331   71.5541    2.9748 H   0  0  0  0  0  0  0  0  0  0  0  0
   21.3480   71.5194   -5.8792 O   0  0  0  0  0  0  0  0  0  0  0  0
   20.6761   71.2380   -7.3225 P   0  0  2  0  0  0  0  0  0  0  0  0
   21.2174   69.7600   -7.7006 O   0  0  0  0  0  0  0  0  0  0  0  0
   20.9717   72.2875   -8.3545 O   0  0  0  0  0  0  0  0  0  0  0  0
   19.1073   71.0294   -7.0099 O   0  0  0  0  0  0  0  0  0  0  0  0
   18.2404   69.3011   -5.6423 O   0  0  0  0  0  0  0  0  0  0  0  0
   14.9798   70.2160   -8.0086 O   0  0  0  0  0  0  0  0  0  0  0  0
   17.6547   70.0535   -9.1718 O   0  0  0  0  0  0  0  0  0  0  0  0
   15.0774   71.1182   -5.2468 O   0  0  0  0  0  0  0  0  0  0  0  0
   16.1843   70.4824   -7.2902 C   0  0  2  0  0  0  0  0  0  0  0  0
   17.3179   69.6270   -7.8568 C   0  0  2  0  0  0  0  0  0  0  0  0
   15.9430   70.1392   -5.8185 C   0  0  1  0  0  0  0  0  0  0  0  0
   18.5621   69.7118   -6.9717 C   0  0  1  0  0  0  0  0  0  0  0  0
   17.2488   70.1220   -5.0291 C   0  0  1  0  0  0  0  0  0  0  0  0
   15.1093   70.4267   -8.9468 H   0  0  0  0  0  0  0  0  0  0  0  0
   16.8696   70.0025   -9.7388 H   0  0  0  0  0  0  0  0  0  0  0  0
   14.2426   71.1393   -5.7403 H   0  0  0  0  0  0  0  0  0  0  0  0
   16.1660   70.1753   -2.9492 O   0  0  0  0  0  0  0  0  0  0  0  0
   17.6133   68.4538   -3.3245 O   0  0  0  0  0  0  0  0  0  0  0  0
   17.0546   69.4748   -3.6966 C   0  0  0  0  0  0  0  0  0  0  0  0
  1  4  1  0
  1 24  1  0
  1  2  1  1
  1  3  2  0
 25 28  1  0
 25 24  1  0
 25 26  1  6
 25 27  2  0
  6 11  1  0
  6 12  1  0
 29 36  1  0
 29 37  1  0
  9  7  1  1
  7 13  1  0
 10  8  1  1
  8 14  1  0
  4  5  1  0
 36 28  1  1
 33 30  1  6
 30 38  1  0
 34 31  1  6
 31 39  1  0
 35 32  1  1
 32 40  1  0
 41 43  1  0
 15 19  2  0
 42 43  2  0
 16 22  2  0
 12 17  1  6
 17 19  1  0
 17 20  1  0
 18 19  1  0
 18 22  1  0
 18 23  1  0
  9 10  1  0
  9 11  1  0
 10 12  1  0
 11  5  1  6
 33 34  1  0
 33 35  1  0
 34 36  1  0
 35 37  1  0
 37 43  1  1
 20 21  2  0
 21 22  1  0
M  CHG  3   2  -1  26  -1  41  -1
M  END
>  <COMPND>  (155) 
    udp_gluA.pdb 

>  <AUTHOR>  (155) 
    GENERATED BY OPEN BABEL 3.1.1

>  <MASTER>  (155) 
        0    0    0    0    0    0    0    0   56    0   56    0

>  <minimizedAffinity>  (155) 
-7.37466

>  <CNNscore>  (155) 
0.3906095624

>  <CNNaffinity>  (155) 
4.1255378723

>  <CNN_VS>  (155) 
1.6114745140

>  <CNNaffinity_variance>  (155) 
0.3261758387

$$$$
156
     RDKit          3D

 43 45  0  0  0  0  0  0  0  0999 V2000
   23.0424   72.3117   -3.4676 P   0  0  2  0  0  0  0  0  0  0  0  0
   24.2395   72.5521   -4.5297 O   0  0  0  0  0  0  0  0  0  0  0  0
   22.5946   73.5389   -2.7292 O   0  0  0  0  0  0  0  0  0  0  0  0
   23.5788   71.0942   -2.5467 O   0  0  0  0  0  0  0  0  0  0  0  0
   24.1045   71.3952   -1.2671 C   0  0  0  0  0  0  0  0  0  0  0  0
   24.4433   70.4117    0.8999 O   0  0  0  0  0  0  0  0  0  0  0  0
   21.6150   69.4370    0.6941 O   0  0  0  0  0  0  0  0  0  0  0  0
   21.3784   71.6133    2.3200 O   0  0  0  0  0  0  0  0  0  0  0  0
   22.1844   70.6622    0.2324 C   0  0  1  0  0  0  0  0  0  0  0  0
   22.4492   71.5897    1.3995 C   0  0  2  0  0  0  0  0  0  0  0  0
   23.5925   70.3674   -0.2661 C   0  0  1  0  0  0  0  0  0  0  0  0
   23.7166   70.9973    1.9918 C   0  0  2  0  0  0  0  0  0  0  0  0
   20.7148   69.6001    1.0177 H   0  0  0  0  0  0  0  0  0  0  0  0
   20.5956   71.9992    1.8955 H   0  0  0  0  0  0  0  0  0  0  0  0
   23.3019   71.9876    4.6040 O   0  0  0  0  0  0  0  0  0  0  0  0
   26.9436   74.7978    4.3134 O   0  0  0  0  0  0  0  0  0  0  0  0
   24.5413   71.9881    2.6235 N   0  0  0  0  0  0  0  0  0  0  0  0
   25.1155   73.3870    4.4564 N   0  0  0  0  0  0  0  0  0  0  0  0
   24.2465   72.4173    3.9392 C   0  0  0  0  0  0  0  0  0  0  0  0
   25.6283   72.5224    1.9425 C   0  0  0  0  0  0  0  0  0  0  0  0
   26.4477   73.4461    2.4487 C   0  0  0  0  0  0  0  0  0  0  0  0
   26.2089   73.9489    3.8175 C   0  0  0  0  0  0  0  0  0  0  0  0
   24.9292   73.7029    5.3701 H   0  0  0  0  0  0  0  0  0  0  0  0
   21.8959   71.6103   -4.3656 O   0  0  0  0  0  0  0  0  0  0  0  0
   20.3269   71.3537   -4.0726 P   0  0  2  0  0  0  0  0  0  0  0  0
   19.7606   72.8385   -3.7645 O   0  0  0  0  0  0  0  0  0  0  0  0
   20.0589   70.3521   -2.9869 O   0  0  0  0  0  0  0  0  0  0  0  0
   19.7000   70.9687   -5.5083 O   0  0  0  0  0  0  0  0  0  0  0  0
   17.4339   70.4249   -5.0861 O   0  0  0  0  0  0  0  0  0  0  0  0
   17.6236   70.1016   -9.2004 O   0  0  0  0  0  0  0  0  0  0  0  0
   19.7850   69.0627   -7.5322 O   0  0  0  0  0  0  0  0  0  0  0  0
   16.3557   72.4130   -7.9753 O   0  0  0  0  0  0  0  0  0  0  0  0
   17.9678   70.6234   -7.9170 C   0  0  2  0  0  0  0  0  0  0  0  0
   18.5237   69.5008   -7.0405 C   0  0  2  0  0  0  0  0  0  0  0  0
   16.7014   71.2108   -7.2900 C   0  0  1  0  0  0  0  0  0  0  0  0
   18.6879   69.9670   -5.5933 C   0  0  1  0  0  0  0  0  0  0  0  0
   16.9091   71.5335   -5.8132 C   0  0  1  0  0  0  0  0  0  0  0  0
   18.4131   69.7229   -9.6181 H   0  0  0  0  0  0  0  0  0  0  0  0
   19.6883   68.7657   -8.4502 H   0  0  0  0  0  0  0  0  0  0  0  0
   16.2209   72.2214   -8.9165 H   0  0  0  0  0  0  0  0  0  0  0  0
   15.7340   71.7032   -3.7903 O   0  0  0  0  0  0  0  0  0  0  0  0
   14.5532   72.0442   -5.7108 O   0  0  0  0  0  0  0  0  0  0  0  0
   15.6015   71.7894   -5.1371 C   0  0  0  0  0  0  0  0  0  0  0  0
  1  4  1  0
  1 24  1  0
  1  2  1  6
  1  3  2  0
 25 28  1  0
 25 24  1  0
 25 26  1  1
 25 27  2  0
  6 11  1  0
  6 12  1  0
 29 36  1  0
 29 37  1  0
  9  7  1  1
  7 13  1  0
 10  8  1  1
  8 14  1  0
  4  5  1  0
 36 28  1  6
 33 30  1  6
 30 38  1  0
 34 31  1  6
 31 39  1  0
 35 32  1  6
 32 40  1  0
 41 43  1  0
 15 19  2  0
 42 43  2  0
 16 22  2  0
 12 17  1  6
 17 19  1  0
 17 20  1  0
 18 19  1  0
 18 22  1  0
 18 23  1  0
  9 10  1  0
  9 11  1  0
 10 12  1  0
 11  5  1  6
 33 34  1  0
 33 35  1  0
 34 36  1  0
 35 37  1  0
 37 43  1  1
 20 21  2  0
 21 22  1  0
M  CHG  3   2  -1  26  -1  41  -1
M  END
>  <COMPND>  (156) 
    udp_gluA.pdb 

>  <AUTHOR>  (156) 
    GENERATED BY OPEN BABEL 3.1.1

>  <MASTER>  (156) 
        0    0    0    0    0    0    0    0   56    0   56    0

>  <minimizedAffinity>  (156) 
-7.69058

>  <CNNscore>  (156) 
0.3863272369

>  <CNNaffinity>  (156) 
4.1368417740

>  <CNN_VS>  (156) 
1.5981746912

>  <CNNaffinity_variance>  (156) 
0.0709349886

$$$$
157
     RDKit          3D

 43 45  0  0  0  0  0  0  0  0999 V2000
   24.1187   72.0390   -2.9368 P   0  0  2  0  0  0  0  0  0  0  0  0
   23.7228   70.4888   -3.1800 O   0  0  0  0  0  0  0  0  0  0  0  0
   25.4178   72.4656   -3.5549 O   0  0  0  0  0  0  0  0  0  0  0  0
   24.0107   72.2204   -1.3326 O   0  0  0  0  0  0  0  0  0  0  0  0
   24.8790   71.4663   -0.5069 C   0  0  0  0  0  0  0  0  0  0  0  0
   24.6549   70.5489    1.7035 O   0  0  0  0  0  0  0  0  0  0  0  0
   21.8119   69.9471    0.9638 O   0  0  0  0  0  0  0  0  0  0  0  0
   21.5704   72.2091    2.4675 O   0  0  0  0  0  0  0  0  0  0  0  0
   22.6236   71.0636    0.5991 C   0  0  1  0  0  0  0  0  0  0  0  0
   22.7846   72.0015    1.7767 C   0  0  2  0  0  0  0  0  0  0  0  0
   24.0467   70.5628    0.3938 C   0  0  1  0  0  0  0  0  0  0  0  0
   23.8198   71.2755    2.6188 C   0  0  2  0  0  0  0  0  0  0  0  0
   20.8977   70.2424    1.1004 H   0  0  0  0  0  0  0  0  0  0  0  0
   20.9450   72.6746    1.8893 H   0  0  0  0  0  0  0  0  0  0  0  0
   23.0765   72.3845    5.1077 O   0  0  0  0  0  0  0  0  0  0  0  0
   27.0326   74.7241    5.4530 O   0  0  0  0  0  0  0  0  0  0  0  0
   24.6365   72.1773    3.3808 N   0  0  0  0  0  0  0  0  0  0  0  0
   25.0472   73.5495    5.2768 N   0  0  0  0  0  0  0  0  0  0  0  0
   24.1696   72.6772    4.6194 C   0  0  0  0  0  0  0  0  0  0  0  0
   25.8845   72.5562    2.9014 C   0  0  0  0  0  0  0  0  0  0  0  0
   26.7098   73.3884    3.5394 C   0  0  0  0  0  0  0  0  0  0  0  0
   26.2974   73.9562    4.8398 C   0  0  0  0  0  0  0  0  0  0  0  0
   24.7431   73.9121    6.1401 H   0  0  0  0  0  0  0  0  0  0  0  0
   22.8209   72.8346   -3.4806 O   0  0  0  0  0  0  0  0  0  0  0  0
   22.4596   73.3950   -4.9534 P   0  0  2  0  0  0  0  0  0  0  0  0
   23.5788   72.7039   -5.8969 O   0  0  0  0  0  0  0  0  0  0  0  0
   22.4105   74.8925   -5.0475 O   0  0  0  0  0  0  0  0  0  0  0  0
   21.0817   72.6539   -5.3465 O   0  0  0  0  0  0  0  0  0  0  0  0
   20.0693   70.7069   -4.4558 O   0  0  0  0  0  0  0  0  0  0  0  0
   18.9486   70.4956   -8.4266 O   0  0  0  0  0  0  0  0  0  0  0  0
   21.6652   71.2818   -7.6945 O   0  0  0  0  0  0  0  0  0  0  0  0
   17.0254   71.3226   -6.4096 O   0  0  0  0  0  0  0  0  0  0  0  0
   19.2935   71.1444   -7.2026 C   0  0  2  0  0  0  0  0  0  0  0  0
   20.7092   70.7402   -6.7904 C   0  0  2  0  0  0  0  0  0  0  0  0
   18.2845   70.7107   -6.1368 C   0  0  1  0  0  0  0  0  0  0  0  0
   21.0279   71.2288   -5.3768 C   0  0  1  0  0  0  0  0  0  0  0  0
   18.7365   71.1264   -4.7399 C   0  0  1  0  0  0  0  0  0  0  0  0
   19.5763   70.7562   -9.1189 H   0  0  0  0  0  0  0  0  0  0  0  0
   21.4689   70.9761   -8.5936 H   0  0  0  0  0  0  0  0  0  0  0  0
   16.7265   71.0662   -7.2960 H   0  0  0  0  0  0  0  0  0  0  0  0
   16.7397   71.0429   -3.5121 O   0  0  0  0  0  0  0  0  0  0  0  0
   18.2949   69.4325   -3.0795 O   0  0  0  0  0  0  0  0  0  0  0  0
   17.9338   70.4260   -3.6923 C   0  0  0  0  0  0  0  0  0  0  0  0
  1  4  1  0
  1 24  1  0
  1  2  1  1
  1  3  2  0
 25 28  1  0
 25 24  1  0
 25 26  1  6
 25 27  2  0
  6 11  1  0
  6 12  1  0
 29 36  1  0
 29 37  1  0
  9  7  1  1
  7 13  1  0
 10  8  1  1
  8 14  1  0
  4  5  1  0
 36 28  1  6
 33 30  1  6
 30 38  1  0
 34 31  1  6
 31 39  1  0
 35 32  1  6
 32 40  1  0
 41 43  1  0
 15 19  2  0
 42 43  2  0
 16 22  2  0
 12 17  1  6
 17 19  1  0
 17 20  1  0
 18 19  1  0
 18 22  1  0
 18 23  1  0
  9 10  1  0
  9 11  1  0
 10 12  1  0
 11  5  1  6
 33 34  1  0
 33 35  1  0
 34 36  1  0
 35 37  1  0
 37 43  1  1
 20 21  2  0
 21 22  1  0
M  CHG  3   2  -1  26  -1  41  -1
M  END
>  <COMPND>  (157) 
    udp_gluA.pdb 

>  <AUTHOR>  (157) 
    GENERATED BY OPEN BABEL 3.1.1

>  <MASTER>  (157) 
        0    0    0    0    0    0    0    0   56    0   56    0

>  <minimizedAffinity>  (157) 
-7.50312

>  <CNNscore>  (157) 
0.3792114258

>  <CNNaffinity>  (157) 
4.1012954712

>  <CNN_VS>  (157) 
1.5552581549

>  <CNNaffinity_variance>  (157) 
0.1276054680

$$$$
158
     RDKit          3D

 43 45  0  0  0  0  0  0  0  0999 V2000
   20.5943   70.6217   -0.6471 P   0  0  2  0  0  0  0  0  0  0  0  0
   19.8929   71.8833    0.0845 O   0  0  0  0  0  0  0  0  0  0  0  0
   21.3505   69.7006    0.2649 O   0  0  0  0  0  0  0  0  0  0  0  0
   21.4571   71.2943   -1.8392 O   0  0  0  0  0  0  0  0  0  0  0  0
   21.9696   72.6004   -1.6491 C   0  0  0  0  0  0  0  0  0  0  0  0
   24.1504   73.3941   -1.0233 O   0  0  0  0  0  0  0  0  0  0  0  0
   25.2403   71.2556   -2.8206 O   0  0  0  0  0  0  0  0  0  0  0  0
   25.5272   70.1545   -0.3425 O   0  0  0  0  0  0  0  0  0  0  0  0
   24.0863   71.2283   -1.9804 C   0  0  1  0  0  0  0  0  0  0  0  0
   24.4977   71.1032   -0.5287 C   0  0  2  0  0  0  0  0  0  0  0  0
   23.4488   72.6106   -2.0128 C   0  0  1  0  0  0  0  0  0  0  0  0
   24.9416   72.5192   -0.2035 C   0  0  2  0  0  0  0  0  0  0  0  0
   25.6647   70.3830   -2.8160 H   0  0  0  0  0  0  0  0  0  0  0  0
   25.1949   69.2695   -0.5622 H   0  0  0  0  0  0  0  0  0  0  0  0
   26.6379   71.7200    1.9084 O   0  0  0  0  0  0  0  0  0  0  0  0
   24.0403   73.8690    5.0513 O   0  0  0  0  0  0  0  0  0  0  0  0
   24.7321   72.8559    1.1762 N   0  0  0  0  0  0  0  0  0  0  0  0
   25.3420   72.7902    3.4718 N   0  0  0  0  0  0  0  0  0  0  0  0
   25.6439   72.4040    2.1593 C   0  0  0  0  0  0  0  0  0  0  0  0
   23.6354   73.6262    1.5434 C   0  0  0  0  0  0  0  0  0  0  0  0
   23.3609   73.9864    2.7986 C   0  0  0  0  0  0  0  0  0  0  0  0
   24.2633   73.5547    3.8861 C   0  0  0  0  0  0  0  0  0  0  0  0
   25.9613   72.4858    4.1740 H   0  0  0  0  0  0  0  0  0  0  0  0
   19.3644   69.9291   -1.4347 O   0  0  0  0  0  0  0  0  0  0  0  0
   18.3769   70.5054   -2.5777 P   0  0  2  0  0  0  0  0  0  0  0  0
   17.9576   71.9603   -2.0051 O   0  0  0  0  0  0  0  0  0  0  0  0
   17.2161   69.6088   -2.8979 O   0  0  0  0  0  0  0  0  0  0  0  0
   19.3424   70.8237   -3.8303 O   0  0  0  0  0  0  0  0  0  0  0  0
   20.3353   72.7730   -4.7379 O   0  0  0  0  0  0  0  0  0  0  0  0
   19.1612   70.7610   -8.1498 O   0  0  0  0  0  0  0  0  0  0  0  0
   17.4011   70.8801   -5.8213 O   0  0  0  0  0  0  0  0  0  0  0  0
   21.9604   70.7945   -7.3661 O   0  0  0  0  0  0  0  0  0  0  0  0
   19.6194   70.8866   -6.8036 C   0  0  2  0  0  0  0  0  0  0  0  0
   18.5846   71.6539   -5.9803 C   0  0  2  0  0  0  0  0  0  0  0  0
   20.9494   71.6432   -6.8254 C   0  0  1  0  0  0  0  0  0  0  0  0
   19.1376   72.0077   -4.5991 C   0  0  1  0  0  0  0  0  0  0  0  0
   21.3703   72.0705   -5.4223 C   0  0  1  0  0  0  0  0  0  0  0  0
   18.3169   70.2832   -8.1609 H   0  0  0  0  0  0  0  0  0  0  0  0
   17.0449   70.6518   -6.6938 H   0  0  0  0  0  0  0  0  0  0  0  0
   21.7046   70.5153   -8.2591 H   0  0  0  0  0  0  0  0  0  0  0  0
   23.6607   72.4681   -5.7345 O   0  0  0  0  0  0  0  0  0  0  0  0
   22.3363   74.2795   -5.3297 O   0  0  0  0  0  0  0  0  0  0  0  0
   22.4746   73.0751   -5.4826 C   0  0  0  0  0  0  0  0  0  0  0  0
  1  4  1  0
  1 24  1  0
  1  2  1  1
  1  3  2  0
 25 28  1  0
 25 24  1  0
 25 26  1  1
 25 27  2  0
  6 11  1  0
  6 12  1  0
 29 36  1  0
 29 37  1  0
  9  7  1  6
  7 13  1  0
 10  8  1  6
  8 14  1  0
  4  5  1  0
 36 28  1  1
 33 30  1  6
 30 38  1  0
 34 31  1  1
 31 39  1  0
 35 32  1  1
 32 40  1  0
 41 43  1  0
 15 19  2  0
 42 43  2  0
 16 22  2  0
 12 17  1  1
 17 19  1  0
 17 20  1  0
 18 19  1  0
 18 22  1  0
 18 23  1  0
  9 10  1  0
  9 11  1  0
 10 12  1  0
 11  5  1  1
 33 34  1  0
 33 35  1  0
 34 36  1  0
 35 37  1  0
 37 43  1  6
 20 21  2  0
 21 22  1  0
M  CHG  3   2  -1  26  -1  41  -1
M  END
>  <COMPND>  (158) 
    udp_gluA.pdb 

>  <AUTHOR>  (158) 
    GENERATED BY OPEN BABEL 3.1.1

>  <MASTER>  (158) 
        0    0    0    0    0    0    0    0   56    0   56    0

>  <minimizedAffinity>  (158) 
-7.03146

>  <CNNscore>  (158) 
0.3731729686

>  <CNNaffinity>  (158) 
3.9404220581

>  <CNN_VS>  (158) 
1.4704589844

>  <CNNaffinity_variance>  (158) 
0.4034980237

$$$$
159
     RDKit          3D

 43 45  0  0  0  0  0  0  0  0999 V2000
   19.7243   71.5754   -1.5513 P   0  0  2  0  0  0  0  0  0  0  0  0
   20.1883   72.5824   -2.7300 O   0  0  0  0  0  0  0  0  0  0  0  0
   18.8430   72.1897   -0.5035 O   0  0  0  0  0  0  0  0  0  0  0  0
   21.1118   70.9376   -1.0165 O   0  0  0  0  0  0  0  0  0  0  0  0
   21.3456   70.9012    0.3794 C   0  0  0  0  0  0  0  0  0  0  0  0
   23.5321   70.6682   -0.5915 O   0  0  0  0  0  0  0  0  0  0  0  0
   24.5645   70.5491    2.2212 O   0  0  0  0  0  0  0  0  0  0  0  0
   25.1114   73.1198    1.4941 O   0  0  0  0  0  0  0  0  0  0  0  0
   23.4883   71.3194    1.6855 C   0  0  1  0  0  0  0  0  0  0  0  0
   24.0266   72.4714    0.8636 C   0  0  2  0  0  0  0  0  0  0  0  0
   22.7865   70.4757    0.6301 C   0  0  1  0  0  0  0  0  0  0  0  0
   24.4298   71.7773   -0.4262 C   0  0  2  0  0  0  0  0  0  0  0  0
   25.0282   71.0676    2.8979 H   0  0  0  0  0  0  0  0  0  0  0  0
   24.8034   73.5462    2.3097 H   0  0  0  0  0  0  0  0  0  0  0  0
   25.2118   71.0603   -3.0436 O   0  0  0  0  0  0  0  0  0  0  0  0
   23.9723   75.1650   -4.7345 O   0  0  0  0  0  0  0  0  0  0  0  0
   24.3224   72.6393   -1.5691 N   0  0  0  0  0  0  0  0  0  0  0  0
   24.5946   73.1057   -3.8831 N   0  0  0  0  0  0  0  0  0  0  0  0
   24.7439   72.1822   -2.8401 C   0  0  0  0  0  0  0  0  0  0  0  0
   23.8032   73.9202   -1.4253 C   0  0  0  0  0  0  0  0  0  0  0  0
   23.6669   74.7892   -2.4289 C   0  0  0  0  0  0  0  0  0  0  0  0
   24.0844   74.3904   -3.7891 C   0  0  0  0  0  0  0  0  0  0  0  0
   24.8832   72.8109   -4.7770 H   0  0  0  0  0  0  0  0  0  0  0  0
   19.0511   70.3511   -2.3641 O   0  0  0  0  0  0  0  0  0  0  0  0
   17.5100   69.8775   -2.4852 P   0  0  2  0  0  0  0  0  0  0  0  0
   16.6833   71.1793   -1.9931 O   0  0  0  0  0  0  0  0  0  0  0  0
   17.1910   68.6202   -1.7293 O   0  0  0  0  0  0  0  0  0  0  0  0
   17.2311   69.7939   -4.0719 O   0  0  0  0  0  0  0  0  0  0  0  0
   18.4431   71.1183   -5.6166 O   0  0  0  0  0  0  0  0  0  0  0  0
   15.1022   70.0991   -7.8229 O   0  0  0  0  0  0  0  0  0  0  0  0
   14.8454   70.8677   -5.0161 O   0  0  0  0  0  0  0  0  0  0  0  0
   17.6449   68.7862   -8.3344 O   0  0  0  0  0  0  0  0  0  0  0  0
   16.1238   69.9123   -6.8434 C   0  0  2  0  0  0  0  0  0  0  0  0
   16.0305   71.0161   -5.7897 C   0  0  2  0  0  0  0  0  0  0  0  0
   17.4774   69.9690   -7.5552 C   0  0  1  0  0  0  0  0  0  0  0  0
   17.2416   70.9852   -4.8563 C   0  0  1  0  0  0  0  0  0  0  0  0
   18.6280   70.0628   -6.5573 C   0  0  1  0  0  0  0  0  0  0  0  0
   14.2327   70.0669   -7.3936 H   0  0  0  0  0  0  0  0  0  0  0  0
   14.0729   70.8861   -5.6021 H   0  0  0  0  0  0  0  0  0  0  0  0
   16.9188   68.7145   -8.9736 H   0  0  0  0  0  0  0  0  0  0  0  0
   20.8921   70.6375   -6.3443 O   0  0  0  0  0  0  0  0  0  0  0  0
   20.0305   70.5689   -8.4543 O   0  0  0  0  0  0  0  0  0  0  0  0
   19.8975   70.4457   -7.2459 C   0  0  0  0  0  0  0  0  0  0  0  0
  1  4  1  0
  1 24  1  0
  1  2  1  6
  1  3  2  0
 25 28  1  0
 25 24  1  0
 25 26  1  1
 25 27  2  0
  6 11  1  0
  6 12  1  0
 29 36  1  0
 29 37  1  0
  9  7  1  6
  7 13  1  0
 10  8  1  1
  8 14  1  0
  4  5  1  0
 36 28  1  6
 33 30  1  6
 30 38  1  0
 34 31  1  1
 31 39  1  0
 35 32  1  1
 32 40  1  0
 41 43  1  0
 15 19  2  0
 42 43  2  0
 16 22  2  0
 12 17  1  6
 17 19  1  0
 17 20  1  0
 18 19  1  0
 18 22  1  0
 18 23  1  0
  9 10  1  0
  9 11  1  0
 10 12  1  0
 11  5  1  6
 33 34  1  0
 33 35  1  0
 34 36  1  0
 35 37  1  0
 37 43  1  6
 20 21  2  0
 21 22  1  0
M  CHG  3   2  -1  26  -1  41  -1
M  END
>  <COMPND>  (159) 
    udp_gluA.pdb 

>  <AUTHOR>  (159) 
    GENERATED BY OPEN BABEL 3.1.1

>  <MASTER>  (159) 
        0    0    0    0    0    0    0    0   56    0   56    0

>  <minimizedAffinity>  (159) 
-7.49456

>  <CNNscore>  (159) 
0.3724270165

>  <CNNaffinity>  (159) 
4.1642460823

>  <CNN_VS>  (159) 
1.5508776903

>  <CNNaffinity_variance>  (159) 
0.3251427114

$$$$
160
     RDKit          3D

 43 45  0  0  0  0  0  0  0  0999 V2000
   20.7826   71.2586   -2.9996 P   0  0  2  0  0  0  0  0  0  0  0  0
   22.1141   70.5348   -3.5671 O   0  0  0  0  0  0  0  0  0  0  0  0
   20.2333   72.3488   -3.8723 O   0  0  0  0  0  0  0  0  0  0  0  0
   21.1903   71.6995   -1.4972 O   0  0  0  0  0  0  0  0  0  0  0  0
   21.9488   70.7992   -0.7107 C   0  0  0  0  0  0  0  0  0  0  0  0
   23.1029   72.5946    0.3948 O   0  0  0  0  0  0  0  0  0  0  0  0
   25.5733   70.9138    0.1424 O   0  0  0  0  0  0  0  0  0  0  0  0
   24.8415   70.5114    2.7383 O   0  0  0  0  0  0  0  0  0  0  0  0
   24.2260   70.5091    0.3860 C   0  0  1  0  0  0  0  0  0  0  0  0
   23.8290   70.8382    1.8095 C   0  0  2  0  0  0  0  0  0  0  0  0
   23.3090   71.4197   -0.4191 C   0  0  1  0  0  0  0  0  0  0  0  0
   23.5711   72.3330    1.7274 C   0  0  2  0  0  0  0  0  0  0  0  0
   26.1779   70.3463    0.6464 H   0  0  0  0  0  0  0  0  0  0  0  0
   24.9678   69.5492    2.7536 H   0  0  0  0  0  0  0  0  0  0  0  0
   24.0492   72.7498    4.4795 O   0  0  0  0  0  0  0  0  0  0  0  0
   19.6803   74.0096    5.2343 O   0  0  0  0  0  0  0  0  0  0  0  0
   22.5765   72.7699    2.6659 N   0  0  0  0  0  0  0  0  0  0  0  0
   21.8726   73.3759    4.8530 N   0  0  0  0  0  0  0  0  0  0  0  0
   22.9203   72.9484    4.0268 C   0  0  0  0  0  0  0  0  0  0  0  0
   21.2787   73.0181    2.2359 C   0  0  0  0  0  0  0  0  0  0  0  0
   20.2907   73.4252    3.0352 C   0  0  0  0  0  0  0  0  0  0  0  0
   20.5660   73.6351    4.4717 C   0  0  0  0  0  0  0  0  0  0  0  0
   22.0872   73.5052    5.8051 H   0  0  0  0  0  0  0  0  0  0  0  0
   19.7733   70.0202   -2.7536 O   0  0  0  0  0  0  0  0  0  0  0  0
   18.1600   69.9676   -2.6634 P   0  0  2  0  0  0  0  0  0  0  0  0
   17.7885   71.3353   -1.8812 O   0  0  0  0  0  0  0  0  0  0  0  0
   17.6193   68.7223   -2.0224 O   0  0  0  0  0  0  0  0  0  0  0  0
   17.6572   70.2143   -4.1762 O   0  0  0  0  0  0  0  0  0  0  0  0
   15.4143   70.8447   -4.6021 O   0  0  0  0  0  0  0  0  0  0  0  0
   16.6295   69.5014   -8.3152 O   0  0  0  0  0  0  0  0  0  0  0  0
   17.3790   68.0459   -5.8956 O   0  0  0  0  0  0  0  0  0  0  0  0
   16.3825   72.3525   -7.8039 O   0  0  0  0  0  0  0  0  0  0  0  0
   16.7887   70.1065   -7.0320 C   0  0  2  0  0  0  0  0  0  0  0  0
   16.4230   69.0987   -5.9420 C   0  0  2  0  0  0  0  0  0  0  0  0
   15.8626   71.3230   -6.9646 C   0  0  1  0  0  0  0  0  0  0  0  0
   16.3591   69.7743   -4.5715 C   0  0  1  0  0  0  0  0  0  0  0  0
   15.7540   71.8623   -5.5413 C   0  0  1  0  0  0  0  0  0  0  0  0
   17.2086   68.7258   -8.3812 H   0  0  0  0  0  0  0  0  0  0  0  0
   17.4249   67.6130   -6.7622 H   0  0  0  0  0  0  0  0  0  0  0  0
   16.4568   72.0220   -8.7128 H   0  0  0  0  0  0  0  0  0  0  0  0
   15.0671   74.0997   -5.3876 O   0  0  0  0  0  0  0  0  0  0  0  0
   13.4355   72.5071   -5.3679 O   0  0  0  0  0  0  0  0  0  0  0  0
   14.6149   72.8218   -5.4231 C   0  0  0  0  0  0  0  0  0  0  0  0
  1  4  1  0
  1 24  1  0
  1  2  1  6
  1  3  2  0
 25 28  1  0
 25 24  1  0
 25 26  1  1
 25 27  2  0
  6 11  1  0
  6 12  1  0
 29 36  1  0
 29 37  1  0
  9  7  1  1
  7 13  1  0
 10  8  1  1
  8 14  1  0
  4  5  1  0
 36 28  1  6
 33 30  1  6
 30 38  1  0
 34 31  1  1
 31 39  1  0
 35 32  1  6
 32 40  1  0
 41 43  1  0
 15 19  2  0
 42 43  2  0
 16 22  2  0
 12 17  1  1
 17 19  1  0
 17 20  1  0
 18 19  1  0
 18 22  1  0
 18 23  1  0
  9 10  1  0
  9 11  1  0
 10 12  1  0
 11  5  1  1
 33 34  1  0
 33 35  1  0
 34 36  1  0
 35 37  1  0
 37 43  1  6
 20 21  2  0
 21 22  1  0
M  CHG  3   2  -1  26  -1  41  -1
M  END
>  <COMPND>  (160) 
    udp_gluA.pdb 

>  <AUTHOR>  (160) 
    GENERATED BY OPEN BABEL 3.1.1

>  <MASTER>  (160) 
        0    0    0    0    0    0    0    0   56    0   56    0

>  <minimizedAffinity>  (160) 
-6.77119

>  <CNNscore>  (160) 
0.3719032109

>  <CNNaffinity>  (160) 
4.0644292831

>  <CNN_VS>  (160) 
1.5115742683

>  <CNNaffinity_variance>  (160) 
0.0944891423

$$$$
161
     RDKit          3D

 43 45  0  0  0  0  0  0  0  0999 V2000
   23.5411   71.4174   -2.9782 P   0  0  2  0  0  0  0  0  0  0  0  0
   25.1413   71.1841   -2.9165 O   0  0  0  0  0  0  0  0  0  0  0  0
   22.7197   70.1631   -3.0391 O   0  0  0  0  0  0  0  0  0  0  0  0
   23.3457   72.4458   -4.2120 O   0  0  0  0  0  0  0  0  0  0  0  0
   22.0402   72.9073   -4.5073 C   0  0  0  0  0  0  0  0  0  0  0  0
   21.0080   71.0310   -5.5991 O   0  0  0  0  0  0  0  0  0  0  0  0
   20.5749   72.8642   -7.9321 O   0  0  0  0  0  0  0  0  0  0  0  0
   18.1223   72.8262   -6.7409 O   0  0  0  0  0  0  0  0  0  0  0  0
   20.5229   73.1523   -6.5347 C   0  0  1  0  0  0  0  0  0  0  0  0
   19.2542   72.5892   -5.9303 C   0  0  2  0  0  0  0  0  0  0  0  0
   21.5990   72.3256   -5.8443 C   0  0  1  0  0  0  0  0  0  0  0  0
   19.5898   71.1122   -5.8120 C   0  0  2  0  0  0  0  0  0  0  0  0
   19.8962   73.3810   -8.3946 H   0  0  0  0  0  0  0  0  0  0  0  0
   17.9499   73.7803   -6.7845 H   0  0  0  0  0  0  0  0  0  0  0  0
   17.0684   69.8531   -5.9954 O   0  0  0  0  0  0  0  0  0  0  0  0
   17.0987   68.7332   -1.5245 O   0  0  0  0  0  0  0  0  0  0  0  0
   18.9157   70.4836   -4.7114 N   0  0  0  0  0  0  0  0  0  0  0  0
   17.0854   69.2974   -3.7683 N   0  0  0  0  0  0  0  0  0  0  0  0
   17.6516   69.8796   -4.9100 C   0  0  0  0  0  0  0  0  0  0  0  0
   19.5065   70.4679   -3.4538 C   0  0  0  0  0  0  0  0  0  0  0  0
   18.9546   69.9089   -2.3750 C   0  0  0  0  0  0  0  0  0  0  0  0
   17.6341   69.2572   -2.4967 C   0  0  0  0  0  0  0  0  0  0  0  0
   16.2045   68.8725   -3.8813 H   0  0  0  0  0  0  0  0  0  0  0  0
   23.2594   72.3446   -1.6844 O   0  0  0  0  0  0  0  0  0  0  0  0
   22.5159   72.0183   -0.2864 P   0  0  2  0  0  0  0  0  0  0  0  0
   22.9314   70.4809    0.0035 O   0  0  0  0  0  0  0  0  0  0  0  0
   21.0352   72.2659   -0.3039 O   0  0  0  0  0  0  0  0  0  0  0  0
   23.3247   72.8736    0.8167 O   0  0  0  0  0  0  0  0  0  0  0  0
   25.5168   73.7567    0.6617 O   0  0  0  0  0  0  0  0  0  0  0  0
   25.1544   73.1153    4.7268 O   0  0  0  0  0  0  0  0  0  0  0  0
   24.1615   71.1362    2.8211 O   0  0  0  0  0  0  0  0  0  0  0  0
   24.9659   75.8099    3.6523 O   0  0  0  0  0  0  0  0  0  0  0  0
   24.6973   73.4277    3.4110 C   0  0  2  0  0  0  0  0  0  0  0  0
   24.9787   72.2495    2.4782 C   0  0  2  0  0  0  0  0  0  0  0  0
   25.4454   74.6746    2.9341 C   0  0  1  0  0  0  0  0  0  0  0  0
   24.7154   72.6305    1.0207 C   0  0  1  0  0  0  0  0  0  0  0  0
   25.2325   74.9155    1.4424 C   0  0  1  0  0  0  0  0  0  0  0  0
   24.6926   72.3259    5.0508 H   0  0  0  0  0  0  0  0  0  0  0  0
   24.3233   70.8892    3.7448 H   0  0  0  0  0  0  0  0  0  0  0  0
   25.0954   75.6693    4.6032 H   0  0  0  0  0  0  0  0  0  0  0  0
   26.9990   76.3818    1.9232 O   0  0  0  0  0  0  0  0  0  0  0  0
   26.2955   76.2759   -0.2431 O   0  0  0  0  0  0  0  0  0  0  0  0
   26.2102   75.9185    0.9222 C   0  0  0  0  0  0  0  0  0  0  0  0
  1  4  1  0
  1 24  1  0
  1  2  1  1
  1  3  2  0
 25 28  1  0
 25 24  1  0
 25 26  1  1
 25 27  2  0
  6 11  1  0
  6 12  1  0
 29 36  1  0
 29 37  1  0
  9  7  1  6
  7 13  1  0
 10  8  1  6
  8 14  1  0
  4  5  1  0
 36 28  1  1
 33 30  1  1
 30 38  1  0
 34 31  1  1
 31 39  1  0
 35 32  1  1
 32 40  1  0
 41 43  1  0
 15 19  2  0
 42 43  2  0
 16 22  2  0
 12 17  1  1
 17 19  1  0
 17 20  1  0
 18 19  1  0
 18 22  1  0
 18 23  1  0
  9 10  1  0
  9 11  1  0
 10 12  1  0
 11  5  1  1
 33 34  1  0
 33 35  1  0
 34 36  1  0
 35 37  1  0
 37 43  1  6
 20 21  2  0
 21 22  1  0
M  CHG  3   2  -1  26  -1  41  -1
M  END
>  <COMPND>  (161) 
    udp_gluA.pdb 

>  <AUTHOR>  (161) 
    GENERATED BY OPEN BABEL 3.1.1

>  <MASTER>  (161) 
        0    0    0    0    0    0    0    0   56    0   56    0

>  <minimizedAffinity>  (161) 
-6.66181

>  <CNNscore>  (161) 
0.7199788690

>  <CNNaffinity>  (161) 
4.4027585983

>  <CNN_VS>  (161) 
3.1698932648

>  <CNNaffinity_variance>  (161) 
0.0708704144

$$$$
162
     RDKit          3D

 43 45  0  0  0  0  0  0  0  0999 V2000
   21.2555   71.0851   -3.4705 P   0  0  2  0  0  0  0  0  0  0  0  0
   22.3768   70.0853   -2.8688 O   0  0  0  0  0  0  0  0  0  0  0  0
   20.1776   71.4826   -2.5051 O   0  0  0  0  0  0  0  0  0  0  0  0
   20.7535   70.3409   -4.8166 O   0  0  0  0  0  0  0  0  0  0  0  0
   20.7032   71.0835   -6.0210 C   0  0  0  0  0  0  0  0  0  0  0  0
   18.8847   69.5413   -6.3252 O   0  0  0  0  0  0  0  0  0  0  0  0
   18.8004   70.4905   -9.1684 O   0  0  0  0  0  0  0  0  0  0  0  0
   16.7355   71.8547   -8.0233 O   0  0  0  0  0  0  0  0  0  0  0  0
   19.0840   71.2262   -7.9781 C   0  0  1  0  0  0  0  0  0  0  0  0
   17.8110   71.4662   -7.1944 C   0  0  2  0  0  0  0  0  0  0  0  0
   19.8690   70.3189   -7.0407 C   0  0  1  0  0  0  0  0  0  0  0  0
   17.5851   70.1147   -6.5384 C   0  0  2  0  0  0  0  0  0  0  0  0
   18.2992   71.0497   -9.7829 H   0  0  0  0  0  0  0  0  0  0  0  0
   16.9273   72.7208   -8.4170 H   0  0  0  0  0  0  0  0  0  0  0  0
   15.9950   68.0782   -5.3978 O   0  0  0  0  0  0  0  0  0  0  0  0
   15.0438   70.6453   -1.6899 O   0  0  0  0  0  0  0  0  0  0  0  0
   16.9103   70.2243   -5.2760 N   0  0  0  0  0  0  0  0  0  0  0  0
   15.5219   69.3591   -3.5526 N   0  0  0  0  0  0  0  0  0  0  0  0
   16.1362   69.1428   -4.7932 C   0  0  0  0  0  0  0  0  0  0  0  0
   17.0201   71.3915   -4.5299 C   0  0  0  0  0  0  0  0  0  0  0  0
   16.4287   71.5829   -3.3491 C   0  0  0  0  0  0  0  0  0  0  0  0
   15.6010   70.5023   -2.7740 C   0  0  0  0  0  0  0  0  0  0  0  0
   14.9760   68.6210   -3.1969 H   0  0  0  0  0  0  0  0  0  0  0  0
   22.1350   72.3151   -4.0417 O   0  0  0  0  0  0  0  0  0  0  0  0
   23.3770   73.1226   -3.3942 P   0  0  2  0  0  0  0  0  0  0  0  0
   23.0090   74.6700   -3.6947 O   0  0  0  0  0  0  0  0  0  0  0  0
   24.7225   72.6963   -3.9059 O   0  0  0  0  0  0  0  0  0  0  0  0
   23.1846   72.9603   -1.8008 O   0  0  0  0  0  0  0  0  0  0  0  0
   24.0537   73.8516    0.2140 O   0  0  0  0  0  0  0  0  0  0  0  0
   24.2482   69.7890    0.9391 O   0  0  0  0  0  0  0  0  0  0  0  0
   25.0103   70.8663   -1.6673 O   0  0  0  0  0  0  0  0  0  0  0  0
   22.1697   71.3956    2.1839 O   0  0  0  0  0  0  0  0  0  0  0  0
   23.7138   70.9888    0.3797 C   0  0  2  0  0  0  0  0  0  0  0  0
   24.7671   71.6534   -0.5071 C   0  0  2  0  0  0  0  0  0  0  0  0
   23.3269   71.9170    1.5333 C   0  0  1  0  0  0  0  0  0  0  0  0
   24.3171   73.0500   -0.9382 C   0  0  1  0  0  0  0  0  0  0  0  0
   23.0135   73.3247    1.0346 C   0  0  1  0  0  0  0  0  0  0  0  0
   24.5013   69.1836    0.2244 H   0  0  0  0  0  0  0  0  0  0  0  0
   25.2959   69.9786   -1.4012 H   0  0  0  0  0  0  0  0  0  0  0  0
   22.3558   70.4998    2.5060 H   0  0  0  0  0  0  0  0  0  0  0  0
   22.8923   75.5660    1.7151 O   0  0  0  0  0  0  0  0  0  0  0  0
   22.9767   73.9842    3.3551 O   0  0  0  0  0  0  0  0  0  0  0  0
   22.9616   74.2914    2.1726 C   0  0  0  0  0  0  0  0  0  0  0  0
  1  4  1  0
  1 24  1  0
  1  2  1  1
  1  3  2  0
 25 28  1  0
 25 24  1  0
 25 26  1  1
 25 27  2  0
  6 11  1  0
  6 12  1  0
 29 36  1  0
 29 37  1  0
  9  7  1  6
  7 13  1  0
 10  8  1  6
  8 14  1  0
  4  5  1  0
 36 28  1  6
 33 30  1  1
 30 38  1  0
 34 31  1  6
 31 39  1  0
 35 32  1  6
 32 40  1  0
 41 43  1  0
 15 19  2  0
 42 43  2  0
 16 22  2  0
 12 17  1  1
 17 19  1  0
 17 20  1  0
 18 19  1  0
 18 22  1  0
 18 23  1  0
  9 10  1  0
  9 11  1  0
 10 12  1  0
 11  5  1  1
 33 34  1  0
 33 35  1  0
 34 36  1  0
 35 37  1  0
 37 43  1  1
 20 21  2  0
 21 22  1  0
M  CHG  3   2  -1  26  -1  41  -1
M  END
>  <COMPND>  (162) 
    udp_gluA.pdb 

>  <AUTHOR>  (162) 
    GENERATED BY OPEN BABEL 3.1.1

>  <MASTER>  (162) 
        0    0    0    0    0    0    0    0   56    0   56    0

>  <minimizedAffinity>  (162) 
-6.61192

>  <CNNscore>  (162) 
0.7121839523

>  <CNNaffinity>  (162) 
4.7101030350

>  <CNN_VS>  (162) 
3.3544597626

>  <CNNaffinity_variance>  (162) 
0.1198639423

$$$$
163
     RDKit          3D

 43 45  0  0  0  0  0  0  0  0999 V2000
   21.2563   71.3000   -0.2432 P   0  0  2  0  0  0  0  0  0  0  0  0
   19.9941   72.2351    0.1458 O   0  0  0  0  0  0  0  0  0  0  0  0
   21.0205   69.8251   -0.0984 O   0  0  0  0  0  0  0  0  0  0  0  0
   22.4737   71.9062    0.6334 O   0  0  0  0  0  0  0  0  0  0  0  0
   22.7961   71.2844    1.8638 C   0  0  0  0  0  0  0  0  0  0  0  0
   23.5471   72.1478    3.9776 O   0  0  0  0  0  0  0  0  0  0  0  0
   21.6612   74.4305    3.5045 O   0  0  0  0  0  0  0  0  0  0  0  0
   24.0753   75.5016    2.8256 O   0  0  0  0  0  0  0  0  0  0  0  0
   22.4564   73.7060    2.5658 C   0  0  1  0  0  0  0  0  0  0  0  0
   23.9113   74.1051    2.6932 C   0  0  2  0  0  0  0  0  0  0  0  0
   22.4867   72.2477    3.0025 C   0  0  1  0  0  0  0  0  0  0  0  0
   24.3389   73.3455    3.9374 C   0  0  2  0  0  0  0  0  0  0  0  0
   21.6271   75.3654    3.2464 H   0  0  0  0  0  0  0  0  0  0  0  0
   23.7896   75.9396    2.0080 H   0  0  0  0  0  0  0  0  0  0  0  0
   26.1952   73.9941    5.9648 O   0  0  0  0  0  0  0  0  0  0  0  0
   29.6450   71.9145    3.7246 O   0  0  0  0  0  0  0  0  0  0  0  0
   25.7285   72.9859    3.9095 N   0  0  0  0  0  0  0  0  0  0  0  0
   27.9119   72.9586    4.8466 N   0  0  0  0  0  0  0  0  0  0  0  0
   26.5762   73.3606    4.9786 C   0  0  0  0  0  0  0  0  0  0  0  0
   26.2379   72.2692    2.8335 C   0  0  0  0  0  0  0  0  0  0  0  0
   27.5133   71.8930    2.7218 C   0  0  0  0  0  0  0  0  0  0  0  0
   28.4653   72.2454    3.7956 C   0  0  0  0  0  0  0  0  0  0  0  0
   28.5217   73.2097    5.5776 H   0  0  0  0  0  0  0  0  0  0  0  0
   21.6149   71.7804   -1.7443 O   0  0  0  0  0  0  0  0  0  0  0  0
   21.3749   71.0643   -3.1737 P   0  0  2  0  0  0  0  0  0  0  0  0
   22.3372   69.7647   -3.1026 O   0  0  0  0  0  0  0  0  0  0  0  0
   21.6234   71.9537   -4.3575 O   0  0  0  0  0  0  0  0  0  0  0  0
   19.8784   70.4681   -3.0867 O   0  0  0  0  0  0  0  0  0  0  0  0
   18.5485   71.1012   -4.9414 O   0  0  0  0  0  0  0  0  0  0  0  0
   15.7777   69.2183   -2.5238 O   0  0  0  0  0  0  0  0  0  0  0  0
   17.7612   71.0275   -1.3719 O   0  0  0  0  0  0  0  0  0  0  0  0
   16.8158   67.8677   -4.8794 O   0  0  0  0  0  0  0  0  0  0  0  0
   17.0680   69.4568   -3.0861 C   0  0  2  0  0  0  0  0  0  0  0  0
   17.5101   70.8847   -2.7652 C   0  0  2  0  0  0  0  0  0  0  0  0
   16.9681   69.2581   -4.6002 C   0  0  1  0  0  0  0  0  0  0  0  0
   18.7764   71.2525   -3.5397 C   0  0  1  0  0  0  0  0  0  0  0  0
   18.2192   69.7644   -5.3122 C   0  0  1  0  0  0  0  0  0  0  0  0
   15.8166   69.3388   -1.5619 H   0  0  0  0  0  0  0  0  0  0  0  0
   16.9619   70.7954   -0.8743 H   0  0  0  0  0  0  0  0  0  0  0  0
   16.0230   67.5329   -4.4319 H   0  0  0  0  0  0  0  0  0  0  0  0
   16.6681   69.7227   -7.0712 O   0  0  0  0  0  0  0  0  0  0  0  0
   18.8537   70.0710   -7.6198 O   0  0  0  0  0  0  0  0  0  0  0  0
   17.9848   69.8726   -6.7838 C   0  0  0  0  0  0  0  0  0  0  0  0
  1  4  1  0
  1 24  1  0
  1  2  1  1
  1  3  2  0
 25 28  1  0
 25 24  1  0
 25 26  1  6
 25 27  2  0
  6 11  1  0
  6 12  1  0
 29 36  1  0
 29 37  1  0
  9  7  1  1
  7 13  1  0
 10  8  1  1
  8 14  1  0
  4  5  1  0
 36 28  1  1
 33 30  1  1
 30 38  1  0
 34 31  1  1
 31 39  1  0
 35 32  1  1
 32 40  1  0
 41 43  1  0
 15 19  2  0
 42 43  2  0
 16 22  2  0
 12 17  1  6
 17 19  1  0
 17 20  1  0
 18 19  1  0
 18 22  1  0
 18 23  1  0
  9 10  1  0
  9 11  1  0
 10 12  1  0
 11  5  1  6
 33 34  1  0
 33 35  1  0
 34 36  1  0
 35 37  1  0
 37 43  1  6
 20 21  2  0
 21 22  1  0
M  CHG  3   2  -1  26  -1  41  -1
M  END
>  <COMPND>  (163) 
    udp_gluA.pdb 

>  <AUTHOR>  (163) 
    GENERATED BY OPEN BABEL 3.1.1

>  <MASTER>  (163) 
        0    0    0    0    0    0    0    0   56    0   56    0

>  <minimizedAffinity>  (163) 
-6.69465

>  <CNNscore>  (163) 
0.7119945288

>  <CNNaffinity>  (163) 
4.3223013878

>  <CNN_VS>  (163) 
3.0774550438

>  <CNNaffinity_variance>  (163) 
0.0337212235

$$$$
164
     RDKit          3D

 43 45  0  0  0  0  0  0  0  0999 V2000
   23.9831   72.1069   -2.9081 P   0  0  2  0  0  0  0  0  0  0  0  0
   24.5914   73.5198   -3.4108 O   0  0  0  0  0  0  0  0  0  0  0  0
   24.9852   70.9983   -2.7720 O   0  0  0  0  0  0  0  0  0  0  0  0
   22.7588   71.8261   -3.9279 O   0  0  0  0  0  0  0  0  0  0  0  0
   22.2637   72.9027   -4.7026 C   0  0  0  0  0  0  0  0  0  0  0  0
   21.1812   71.0637   -5.8089 O   0  0  0  0  0  0  0  0  0  0  0  0
   20.6530   72.9716   -8.0611 O   0  0  0  0  0  0  0  0  0  0  0  0
   18.2535   72.8977   -6.7677 O   0  0  0  0  0  0  0  0  0  0  0  0
   20.6616   73.2146   -6.6542 C   0  0  1  0  0  0  0  0  0  0  0  0
   19.4185   72.6335   -6.0144 C   0  0  2  0  0  0  0  0  0  0  0  0
   21.7643   72.3649   -6.0374 C   0  0  1  0  0  0  0  0  0  0  0  0
   19.7553   71.1532   -5.9581 C   0  0  2  0  0  0  0  0  0  0  0  0
   19.9563   73.5038   -8.4772 H   0  0  0  0  0  0  0  0  0  0  0  0
   18.0817   73.8529   -6.7731 H   0  0  0  0  0  0  0  0  0  0  0  0
   17.1823   69.9920   -6.0450 O   0  0  0  0  0  0  0  0  0  0  0  0
   17.4465   68.6351   -1.6481 O   0  0  0  0  0  0  0  0  0  0  0  0
   19.1274   70.4900   -4.8505 N   0  0  0  0  0  0  0  0  0  0  0  0
   17.3159   69.3182   -3.8547 N   0  0  0  0  0  0  0  0  0  0  0  0
   17.8319   69.9408   -4.9989 C   0  0  0  0  0  0  0  0  0  0  0  0
   19.7937   70.3873   -3.6354 C   0  0  0  0  0  0  0  0  0  0  0  0
   19.2890   69.7907   -2.5537 C   0  0  0  0  0  0  0  0  0  0  0  0
   17.9401   69.1916   -2.6243 C   0  0  0  0  0  0  0  0  0  0  0  0
   16.4145   68.9301   -3.9331 H   0  0  0  0  0  0  0  0  0  0  0  0
   23.2285   72.5047   -1.5351 O   0  0  0  0  0  0  0  0  0  0  0  0
   22.4831   71.5899   -0.4301 P   0  0  2  0  0  0  0  0  0  0  0  0
   23.1640   72.0613    0.9607 O   0  0  0  0  0  0  0  0  0  0  0  0
   22.5701   70.1142   -0.6922 O   0  0  0  0  0  0  0  0  0  0  0  0
   20.9794   72.1707   -0.3647 O   0  0  0  0  0  0  0  0  0  0  0  0
   19.7555   73.5936   -1.8091 O   0  0  0  0  0  0  0  0  0  0  0  0
   18.3846   74.7828    1.9023 O   0  0  0  0  0  0  0  0  0  0  0  0
   21.2236   74.2416    1.4759 O   0  0  0  0  0  0  0  0  0  0  0  0
   16.7200   73.1185    0.1964 O   0  0  0  0  0  0  0  0  0  0  0  0
   18.8894   73.8652    0.9321 C   0  0  2  0  0  0  0  0  0  0  0  0
   20.2553   74.3425    0.4382 C   0  0  2  0  0  0  0  0  0  0  0  0
   17.8936   73.8088   -0.2286 C   0  0  1  0  0  0  0  0  0  0  0  0
   20.7226   73.5166   -0.7611 C   0  0  1  0  0  0  0  0  0  0  0  0
   18.4812   73.0770   -1.4317 C   0  0  1  0  0  0  0  0  0  0  0  0
   19.0012   74.8352    2.6495 H   0  0  0  0  0  0  0  0  0  0  0  0
   20.9334   74.7631    2.2402 H   0  0  0  0  0  0  0  0  0  0  0  0
   16.3362   73.5741    0.9619 H   0  0  0  0  0  0  0  0  0  0  0  0
   16.6923   72.3565   -2.7667 O   0  0  0  0  0  0  0  0  0  0  0  0
   17.8045   74.2295   -3.4405 O   0  0  0  0  0  0  0  0  0  0  0  0
   17.6504   73.3092   -2.6516 C   0  0  0  0  0  0  0  0  0  0  0  0
  1  4  1  0
  1 24  1  0
  1  2  1  6
  1  3  2  0
 25 28  1  0
 25 24  1  0
 25 26  1  1
 25 27  2  0
  6 11  1  0
  6 12  1  0
 29 36  1  0
 29 37  1  0
  9  7  1  6
  7 13  1  0
 10  8  1  6
  8 14  1  0
  4  5  1  0
 36 28  1  1
 33 30  1  1
 30 38  1  0
 34 31  1  1
 31 39  1  0
 35 32  1  1
 32 40  1  0
 41 43  1  0
 15 19  2  0
 42 43  2  0
 16 22  2  0
 12 17  1  1
 17 19  1  0
 17 20  1  0
 18 19  1  0
 18 22  1  0
 18 23  1  0
  9 10  1  0
  9 11  1  0
 10 12  1  0
 11  5  1  1
 33 34  1  0
 33 35  1  0
 34 36  1  0
 35 37  1  0
 37 43  1  6
 20 21  2  0
 21 22  1  0
M  CHG  3   2  -1  26  -1  41  -1
M  END
>  <COMPND>  (164) 
    udp_gluA.pdb 

>  <AUTHOR>  (164) 
    GENERATED BY OPEN BABEL 3.1.1

>  <MASTER>  (164) 
        0    0    0    0    0    0    0    0   56    0   56    0

>  <minimizedAffinity>  (164) 
-5.82907

>  <CNNscore>  (164) 
0.6962891817

>  <CNNaffinity>  (164) 
4.0960736275

>  <CNN_VS>  (164) 
2.8520517349

>  <CNNaffinity_variance>  (164) 
0.5680832267

$$$$
165
     RDKit          3D

 43 45  0  0  0  0  0  0  0  0999 V2000
   21.8101   70.8646    0.4818 P   0  0  2  0  0  0  0  0  0  0  0  0
   20.8012   71.6440    1.4786 O   0  0  0  0  0  0  0  0  0  0  0  0
   21.8770   69.3790    0.6825 O   0  0  0  0  0  0  0  0  0  0  0  0
   23.2098   71.6596    0.6461 O   0  0  0  0  0  0  0  0  0  0  0  0
   23.9657   71.4607    1.8266 C   0  0  0  0  0  0  0  0  0  0  0  0
   24.6866   72.5660    3.8357 O   0  0  0  0  0  0  0  0  0  0  0  0
   23.0488   74.9033    2.9158 O   0  0  0  0  0  0  0  0  0  0  0  0
   25.5837   75.6505    2.2435 O   0  0  0  0  0  0  0  0  0  0  0  0
   23.8192   73.9805    2.1453 C   0  0  1  0  0  0  0  0  0  0  0  0
   25.2967   74.2691    2.3058 C   0  0  2  0  0  0  0  0  0  0  0  0
   23.6908   72.6075    2.7907 C   0  0  1  0  0  0  0  0  0  0  0  0
   25.5881   73.6723    3.6721 C   0  0  2  0  0  0  0  0  0  0  0  0
   23.1154   75.7880    2.5227 H   0  0  0  0  0  0  0  0  0  0  0  0
   25.3819   75.9829    1.3543 H   0  0  0  0  0  0  0  0  0  0  0  0
   27.4533   74.6030    5.5777 O   0  0  0  0  0  0  0  0  0  0  0  0
   30.7378   71.7722    4.0149 O   0  0  0  0  0  0  0  0  0  0  0  0
   26.9375   73.1957    3.7854 N   0  0  0  0  0  0  0  0  0  0  0  0
   29.0877   73.1929    4.7969 N   0  0  0  0  0  0  0  0  0  0  0  0
   27.7937   73.7297    4.7774 C   0  0  0  0  0  0  0  0  0  0  0  0
   27.3998   72.2099    2.9221 C   0  0  0  0  0  0  0  0  0  0  0  0
   28.6359   71.7081    2.9529 C   0  0  0  0  0  0  0  0  0  0  0  0
   29.5936   72.2124    3.9588 C   0  0  0  0  0  0  0  0  0  0  0  0
   29.7026   73.5505    5.4775 H   0  0  0  0  0  0  0  0  0  0  0  0
   21.3009   71.3240   -0.9819 O   0  0  0  0  0  0  0  0  0  0  0  0
   19.9374   70.9913   -1.7842 P   0  0  2  0  0  0  0  0  0  0  0  0
   18.9556   72.2084   -1.3657 O   0  0  0  0  0  0  0  0  0  0  0  0
   19.3795   69.6247   -1.5102 O   0  0  0  0  0  0  0  0  0  0  0  0
   20.2948   71.2704   -3.3323 O   0  0  0  0  0  0  0  0  0  0  0  0
   21.6014   73.0115   -4.2655 O   0  0  0  0  0  0  0  0  0  0  0  0
   18.9013   72.2666   -7.3023 O   0  0  0  0  0  0  0  0  0  0  0  0
   18.0169   72.3378   -4.5190 O   0  0  0  0  0  0  0  0  0  0  0  0
   21.6409   71.3189   -7.5206 O   0  0  0  0  0  0  0  0  0  0  0  0
   19.7321   71.9404   -6.1882 C   0  0  2  0  0  0  0  0  0  0  0  0
   19.2994   72.7574   -4.9706 C   0  0  2  0  0  0  0  0  0  0  0  0
   21.1784   72.2705   -6.5640 C   0  0  1  0  0  0  0  0  0  0  0  0
   20.3035   72.6084   -3.8268 C   0  0  1  0  0  0  0  0  0  0  0  0
   22.0955   72.2223   -5.3454 C   0  0  1  0  0  0  0  0  0  0  0  0
   17.9771   72.0651   -7.0867 H   0  0  0  0  0  0  0  0  0  0  0  0
   17.3748   72.4294   -5.2398 H   0  0  0  0  0  0  0  0  0  0  0  0
   21.0655   71.3394   -8.3013 H   0  0  0  0  0  0  0  0  0  0  0  0
   24.2653   72.7140   -4.6025 O   0  0  0  0  0  0  0  0  0  0  0  0
   23.6956   73.4247   -6.6928 O   0  0  0  0  0  0  0  0  0  0  0  0
   23.4140   72.8564   -5.6484 C   0  0  0  0  0  0  0  0  0  0  0  0
  1  4  1  0
  1 24  1  0
  1  2  1  1
  1  3  2  0
 25 28  1  0
 25 24  1  0
 25 26  1  1
 25 27  2  0
  6 11  1  0
  6 12  1  0
 29 36  1  0
 29 37  1  0
  9  7  1  1
  7 13  1  0
 10  8  1  1
  8 14  1  0
  4  5  1  0
 36 28  1  6
 33 30  1  6
 30 38  1  0
 34 31  1  1
 31 39  1  0
 35 32  1  6
 32 40  1  0
 41 43  1  0
 15 19  2  0
 42 43  2  0
 16 22  2  0
 12 17  1  6
 17 19  1  0
 17 20  1  0
 18 19  1  0
 18 22  1  0
 18 23  1  0
  9 10  1  0
  9 11  1  0
 10 12  1  0
 11  5  1  6
 33 34  1  0
 33 35  1  0
 34 36  1  0
 35 37  1  0
 37 43  1  6
 20 21  2  0
 21 22  1  0
M  CHG  3   2  -1  26  -1  41  -1
M  END
>  <COMPND>  (165) 
    udp_gluA.pdb 

>  <AUTHOR>  (165) 
    GENERATED BY OPEN BABEL 3.1.1

>  <MASTER>  (165) 
        0    0    0    0    0    0    0    0   56    0   56    0

>  <minimizedAffinity>  (165) 
-6.78290

>  <CNNscore>  (165) 
0.6954367161

>  <CNNaffinity>  (165) 
4.2908735275

>  <CNN_VS>  (165) 
2.9840309620

>  <CNNaffinity_variance>  (165) 
0.0380480625

$$$$
166
     RDKit          3D

 43 45  0  0  0  0  0  0  0  0999 V2000
   23.4642   71.3844   -2.8745 P   0  0  2  0  0  0  0  0  0  0  0  0
   25.0760   71.2422   -2.8494 O   0  0  0  0  0  0  0  0  0  0  0  0
   22.7191   70.1054   -3.1209 O   0  0  0  0  0  0  0  0  0  0  0  0
   23.1954   72.5709   -3.9413 O   0  0  0  0  0  0  0  0  0  0  0  0
   21.8625   72.9960   -4.1581 C   0  0  0  0  0  0  0  0  0  0  0  0
   20.8100   71.1881   -5.3418 O   0  0  0  0  0  0  0  0  0  0  0  0
   20.3366   73.1577   -7.5527 O   0  0  0  0  0  0  0  0  0  0  0  0
   17.9054   73.0470   -6.3226 O   0  0  0  0  0  0  0  0  0  0  0  0
   20.3095   73.3614   -6.1398 C   0  0  1  0  0  0  0  0  0  0  0  0
   19.0514   72.7624   -5.5478 C   0  0  2  0  0  0  0  0  0  0  0  0
   21.3973   72.4953   -5.5194 C   0  0  1  0  0  0  0  0  0  0  0  0
   19.3882   71.2812   -5.5242 C   0  0  2  0  0  0  0  0  0  0  0  0
   19.6500   73.7009   -7.9713 H   0  0  0  0  0  0  0  0  0  0  0  0
   17.7328   74.0019   -6.3058 H   0  0  0  0  0  0  0  0  0  0  0  0
   16.8345   70.0907   -5.7190 O   0  0  0  0  0  0  0  0  0  0  0  0
   16.9738   68.6452   -1.3446 O   0  0  0  0  0  0  0  0  0  0  0  0
   18.7334   70.5873   -4.4516 N   0  0  0  0  0  0  0  0  0  0  0  0
   16.9059   69.3727   -3.5398 N   0  0  0  0  0  0  0  0  0  0  0  0
   17.4505   70.0255   -4.6535 C   0  0  0  0  0  0  0  0  0  0  0  0
   19.3612   70.4673   -3.2177 C   0  0  0  0  0  0  0  0  0  0  0  0
   18.8295   69.8420   -2.1656 C   0  0  0  0  0  0  0  0  0  0  0  0
   17.4915   69.2281   -2.2925 C   0  0  0  0  0  0  0  0  0  0  0  0
   16.0126   68.9753   -3.6555 H   0  0  0  0  0  0  0  0  0  0  0  0
   23.1400   72.0901   -1.4568 O   0  0  0  0  0  0  0  0  0  0  0  0
   22.0774   71.7086   -0.2997 P   0  0  2  0  0  0  0  0  0  0  0  0
   22.0114   70.0930   -0.3762 O   0  0  0  0  0  0  0  0  0  0  0  0
   20.7463   72.3891   -0.4373 O   0  0  0  0  0  0  0  0  0  0  0  0
   22.8485   72.0195    1.0828 O   0  0  0  0  0  0  0  0  0  0  0  0
   22.1550   73.8235    2.4516 O   0  0  0  0  0  0  0  0  0  0  0  0
   25.9576   73.0899    3.8905 O   0  0  0  0  0  0  0  0  0  0  0  0
   25.4291   73.0552    1.0175 O   0  0  0  0  0  0  0  0  0  0  0  0
   23.6321   72.2278    5.4070 O   0  0  0  0  0  0  0  0  0  0  0  0
   24.6965   72.7555    3.3109 C   0  0  2  0  0  0  0  0  0  0  0  0
   24.5149   73.5242    2.0019 C   0  0  2  0  0  0  0  0  0  0  0  0
   23.6012   73.1376    4.3089 C   0  0  1  0  0  0  0  0  0  0  0  0
   23.0890   73.3710    1.4707 C   0  0  1  0  0  0  0  0  0  0  0  0
   22.2180   73.0805    3.6670 C   0  0  1  0  0  0  0  0  0  0  0  0
   26.6692   72.8560    3.2739 H   0  0  0  0  0  0  0  0  0  0  0  0
   26.3359   73.1492    1.3480 H   0  0  0  0  0  0  0  0  0  0  0  0
   24.5073   72.2543    5.8243 H   0  0  0  0  0  0  0  0  0  0  0  0
   21.8077   74.4096    5.5555 O   0  0  0  0  0  0  0  0  0  0  0  0
   19.9975   73.7416    4.3405 O   0  0  0  0  0  0  0  0  0  0  0  0
   21.2046   73.7605    4.5289 C   0  0  0  0  0  0  0  0  0  0  0  0
  1  4  1  0
  1 24  1  0
  1  2  1  1
  1  3  2  0
 25 28  1  0
 25 24  1  0
 25 26  1  1
 25 27  2  0
  6 11  1  0
  6 12  1  0
 29 36  1  0
 29 37  1  0
  9  7  1  6
  7 13  1  0
 10  8  1  6
  8 14  1  0
  4  5  1  0
 36 28  1  1
 33 30  1  1
 30 38  1  0
 34 31  1  6
 31 39  1  0
 35 32  1  1
 32 40  1  0
 41 43  1  0
 15 19  2  0
 42 43  2  0
 16 22  2  0
 12 17  1  1
 17 19  1  0
 17 20  1  0
 18 19  1  0
 18 22  1  0
 18 23  1  0
  9 10  1  0
  9 11  1  0
 10 12  1  0
 11  5  1  1
 33 34  1  0
 33 35  1  0
 34 36  1  0
 35 37  1  0
 37 43  1  1
 20 21  2  0
 21 22  1  0
M  CHG  3   2  -1  26  -1  41  -1
M  END
>  <COMPND>  (166) 
    udp_gluA.pdb 

>  <AUTHOR>  (166) 
    GENERATED BY OPEN BABEL 3.1.1

>  <MASTER>  (166) 
        0    0    0    0    0    0    0    0   56    0   56    0

>  <minimizedAffinity>  (166) 
-6.76272

>  <CNNscore>  (166) 
0.6768844724

>  <CNNaffinity>  (166) 
4.3071842194

>  <CNN_VS>  (166) 
2.9154660702

>  <CNNaffinity_variance>  (166) 
0.1038293689

$$$$
167
     RDKit          3D

 43 45  0  0  0  0  0  0  0  0999 V2000
   14.7714   69.8447   -0.6528 P   0  0  2  0  0  0  0  0  0  0  0  0
   15.2441   68.5625    0.2140 O   0  0  0  0  0  0  0  0  0  0  0  0
   15.0232   71.1748   -0.0053 O   0  0  0  0  0  0  0  0  0  0  0  0
   13.2283   69.5209   -1.0158 O   0  0  0  0  0  0  0  0  0  0  0  0
   12.6643   68.3085   -0.5504 C   0  0  0  0  0  0  0  0  0  0  0  0
   10.7557   67.4919    0.6612 O   0  0  0  0  0  0  0  0  0  0  0  0
    9.5626   70.2116    0.2472 O   0  0  0  0  0  0  0  0  0  0  0  0
   10.4585   70.3393    2.8196 O   0  0  0  0  0  0  0  0  0  0  0  0
   10.9229   69.8481    0.4839 C   0  0  1  0  0  0  0  0  0  0  0  0
   11.1163   69.4576    1.9339 C   0  0  2  0  0  0  0  0  0  0  0  0
   11.1906   68.5346   -0.2382 C   0  0  1  0  0  0  0  0  0  0  0  0
   10.5323   68.0554    1.9635 C   0  0  2  0  0  0  0  0  0  0  0  0
    9.3678   71.0481    0.6988 H   0  0  0  0  0  0  0  0  0  0  0  0
   10.8669   71.2179    2.7638 H   0  0  0  0  0  0  0  0  0  0  0  0
    9.1379   66.5523    3.9058 O   0  0  0  0  0  0  0  0  0  0  0  0
   13.0483   64.8876    5.6894 O   0  0  0  0  0  0  0  0  0  0  0  0
   11.1612   67.2206    2.9476 N   0  0  0  0  0  0  0  0  0  0  0  0
   11.0868   65.7254    4.7929 N   0  0  0  0  0  0  0  0  0  0  0  0
   10.3692   66.5074    3.8783 C   0  0  0  0  0  0  0  0  0  0  0  0
   12.5461   67.1133    2.9834 C   0  0  0  0  0  0  0  0  0  0  0  0
   13.2160   66.3638    3.8610 C   0  0  0  0  0  0  0  0  0  0  0  0
   12.4634   65.5873    4.8681 C   0  0  0  0  0  0  0  0  0  0  0  0
   10.5571   65.2212    5.4521 H   0  0  0  0  0  0  0  0  0  0  0  0
   15.5298   69.6284   -2.0638 O   0  0  0  0  0  0  0  0  0  0  0  0
   17.0430   69.9701   -2.5188 P   0  0  2  0  0  0  0  0  0  0  0  0
   17.8699   68.6517   -2.0730 O   0  0  0  0  0  0  0  0  0  0  0  0
   17.5793   71.2553   -1.9581 O   0  0  0  0  0  0  0  0  0  0  0  0
   17.0105   69.9047   -4.1303 O   0  0  0  0  0  0  0  0  0  0  0  0
   18.2499   71.2734   -5.6134 O   0  0  0  0  0  0  0  0  0  0  0  0
   14.9786   70.2719   -7.9293 O   0  0  0  0  0  0  0  0  0  0  0  0
   14.6403   70.9769   -5.1145 O   0  0  0  0  0  0  0  0  0  0  0  0
   17.5466   68.9938   -8.4010 O   0  0  0  0  0  0  0  0  0  0  0  0
   15.9758   70.0732   -6.9272 C   0  0  2  0  0  0  0  0  0  0  0  0
   15.8439   71.1529   -5.8528 C   0  0  2  0  0  0  0  0  0  0  0  0
   17.3470   70.1578   -7.6013 C   0  0  1  0  0  0  0  0  0  0  0  0
   17.0301   71.1129   -4.8884 C   0  0  1  0  0  0  0  0  0  0  0  0
   18.4699   70.2404   -6.5713 C   0  0  1  0  0  0  0  0  0  0  0  0
   14.0984   70.2224   -7.5241 H   0  0  0  0  0  0  0  0  0  0  0  0
   13.8834   71.0010   -5.7203 H   0  0  0  0  0  0  0  0  0  0  0  0
   16.8384   68.9294   -9.0607 H   0  0  0  0  0  0  0  0  0  0  0  0
   20.4868   69.5610   -7.5574 O   0  0  0  0  0  0  0  0  0  0  0  0
   20.1008   71.8040   -7.4180 O   0  0  0  0  0  0  0  0  0  0  0  0
   19.7533   70.6498   -7.2175 C   0  0  0  0  0  0  0  0  0  0  0  0
  1  4  1  0
  1 24  1  0
  1  2  1  1
  1  3  2  0
 25 28  1  0
 25 24  1  0
 25 26  1  1
 25 27  2  0
  6 11  1  0
  6 12  1  0
 29 36  1  0
 29 37  1  0
  9  7  1  1
  7 13  1  0
 10  8  1  1
  8 14  1  0
  4  5  1  0
 36 28  1  6
 33 30  1  6
 30 38  1  0
 34 31  1  1
 31 39  1  0
 35 32  1  1
 32 40  1  0
 41 43  1  0
 15 19  2  0
 42 43  2  0
 16 22  2  0
 12 17  1  1
 17 19  1  0
 17 20  1  0
 18 19  1  0
 18 22  1  0
 18 23  1  0
  9 10  1  0
  9 11  1  0
 10 12  1  0
 11  5  1  1
 33 34  1  0
 33 35  1  0
 34 36  1  0
 35 37  1  0
 37 43  1  6
 20 21  2  0
 21 22  1  0
M  CHG  3   2  -1  26  -1  41  -1
M  END
>  <COMPND>  (167) 
    udp_gluA.pdb 

>  <AUTHOR>  (167) 
    GENERATED BY OPEN BABEL 3.1.1

>  <MASTER>  (167) 
        0    0    0    0    0    0    0    0   56    0   56    0

>  <minimizedAffinity>  (167) 
-7.06970

>  <CNNscore>  (167) 
0.6724605560

>  <CNNaffinity>  (167) 
4.2015867233

>  <CNN_VS>  (167) 
2.8254013062

>  <CNNaffinity_variance>  (167) 
0.0631141290

$$$$
168
     RDKit          3D

 43 45  0  0  0  0  0  0  0  0999 V2000
   23.8811   73.1031   -3.4258 P   0  0  2  0  0  0  0  0  0  0  0  0
   23.5097   74.6605   -3.6612 O   0  0  0  0  0  0  0  0  0  0  0  0
   25.2661   72.7109   -3.8500 O   0  0  0  0  0  0  0  0  0  0  0  0
   22.6729   72.3025   -4.1451 O   0  0  0  0  0  0  0  0  0  0  0  0
   21.7914   73.0228   -4.9870 C   0  0  0  0  0  0  0  0  0  0  0  0
   21.0152   70.8856   -5.7663 O   0  0  0  0  0  0  0  0  0  0  0  0
   20.5009   72.2384   -8.3925 O   0  0  0  0  0  0  0  0  0  0  0  0
   18.0128   72.1277   -7.2820 O   0  0  0  0  0  0  0  0  0  0  0  0
   20.3534   72.7506   -7.0680 C   0  0  1  0  0  0  0  0  0  0  0  0
   19.1242   72.1592   -6.4111 C   0  0  2  0  0  0  0  0  0  0  0  0
   21.4772   72.1781   -6.2150 C   0  0  1  0  0  0  0  0  0  0  0  0
   19.6078   70.7704   -6.0297 C   0  0  2  0  0  0  0  0  0  0  0  0
   19.7939   72.5904   -8.9563 H   0  0  0  0  0  0  0  0  0  0  0  0
   17.7430   73.0354   -7.4947 H   0  0  0  0  0  0  0  0  0  0  0  0
   17.1504   69.3785   -6.0495 O   0  0  0  0  0  0  0  0  0  0  0  0
   17.1882   68.8779   -1.4678 O   0  0  0  0  0  0  0  0  0  0  0  0
   18.9529   70.2652   -4.8564 N   0  0  0  0  0  0  0  0  0  0  0  0
   17.1711   69.1314   -3.7674 N   0  0  0  0  0  0  0  0  0  0  0  0
   17.7207   69.5799   -4.9756 C   0  0  0  0  0  0  0  0  0  0  0  0
   19.5311   70.4485   -3.6062 C   0  0  0  0  0  0  0  0  0  0  0  0
   18.9953   70.0151   -2.4634 C   0  0  0  0  0  0  0  0  0  0  0  0
   17.7081   69.2903   -2.5002 C   0  0  0  0  0  0  0  0  0  0  0  0
   16.3123   68.6533   -3.8248 H   0  0  0  0  0  0  0  0  0  0  0  0
   23.5728   72.8900   -1.8535 O   0  0  0  0  0  0  0  0  0  0  0  0
   23.5288   71.5482   -0.9527 P   0  0  2  0  0  0  0  0  0  0  0  0
   24.9565   70.8498   -1.2596 O   0  0  0  0  0  0  0  0  0  0  0  0
   22.3408   70.6687   -1.2157 O   0  0  0  0  0  0  0  0  0  0  0  0
   23.6504   72.0721    0.5682 O   0  0  0  0  0  0  0  0  0  0  0  0
   25.3301   71.2523    2.0226 O   0  0  0  0  0  0  0  0  0  0  0  0
   22.5950   72.8168    4.6946 O   0  0  0  0  0  0  0  0  0  0  0  0
   21.6916   71.2829    2.3783 O   0  0  0  0  0  0  0  0  0  0  0  0
   25.0593   74.2489    4.1225 O   0  0  0  0  0  0  0  0  0  0  0  0
   23.3094   72.7302    3.4617 C   0  0  2  0  0  0  0  0  0  0  0  0
   23.0442   71.3725    2.8108 C   0  0  2  0  0  0  0  0  0  0  0  0
   24.8003   72.8921    3.7666 C   0  0  1  0  0  0  0  0  0  0  0  0
   23.9664   71.1515    1.6110 C   0  0  1  0  0  0  0  0  0  0  0  0
   25.6586   72.5327    2.5572 C   0  0  1  0  0  0  0  0  0  0  0  0
   21.6449   72.7166    4.5256 H   0  0  0  0  0  0  0  0  0  0  0  0
   21.1008   71.4224    3.1345 H   0  0  0  0  0  0  0  0  0  0  0  0
   24.5190   74.4904    4.8910 H   0  0  0  0  0  0  0  0  0  0  0  0
   27.6388   73.5763    3.2581 O   0  0  0  0  0  0  0  0  0  0  0  0
   27.6927   71.3118    2.9966 O   0  0  0  0  0  0  0  0  0  0  0  0
   27.0909   72.3743    2.9515 C   0  0  0  0  0  0  0  0  0  0  0  0
  1  4  1  0
  1 24  1  0
  1  2  1  1
  1  3  2  0
 25 28  1  0
 25 24  1  0
 25 26  1  6
 25 27  2  0
  6 11  1  0
  6 12  1  0
 29 36  1  0
 29 37  1  0
  9  7  1  6
  7 13  1  0
 10  8  1  6
  8 14  1  0
  4  5  1  0
 36 28  1  6
 33 30  1  1
 30 38  1  0
 34 31  1  6
 31 39  1  0
 35 32  1  6
 32 40  1  0
 41 43  1  0
 15 19  2  0
 42 43  2  0
 16 22  2  0
 12 17  1  1
 17 19  1  0
 17 20  1  0
 18 19  1  0
 18 22  1  0
 18 23  1  0
  9 10  1  0
  9 11  1  0
 10 12  1  0
 11  5  1  1
 33 34  1  0
 33 35  1  0
 34 36  1  0
 35 37  1  0
 37 43  1  1
 20 21  2  0
 21 22  1  0
M  CHG  3   2  -1  26  -1  41  -1
M  END
>  <COMPND>  (168) 
    udp_gluA.pdb 

>  <AUTHOR>  (168) 
    GENERATED BY OPEN BABEL 3.1.1

>  <MASTER>  (168) 
        0    0    0    0    0    0    0    0   56    0   56    0

>  <minimizedAffinity>  (168) 
-7.88109

>  <CNNscore>  (168) 
0.6709202528

>  <CNNaffinity>  (168) 
4.4168543816

>  <CNN_VS>  (168) 
2.9633569717

>  <CNNaffinity_variance>  (168) 
0.0779379979

$$$$
169
     RDKit          3D

 43 45  0  0  0  0  0  0  0  0999 V2000
   21.5387   70.9616   -2.5837 P   0  0  2  0  0  0  0  0  0  0  0  0
   20.8351   69.8604   -1.6292 O   0  0  0  0  0  0  0  0  0  0  0  0
   21.1997   72.3877   -2.2624 O   0  0  0  0  0  0  0  0  0  0  0  0
   21.1685   70.4716   -4.0806 O   0  0  0  0  0  0  0  0  0  0  0  0
   21.1714   71.4275   -5.1251 C   0  0  0  0  0  0  0  0  0  0  0  0
   19.6020   69.8164   -5.9730 O   0  0  0  0  0  0  0  0  0  0  0  0
   19.8211   71.2584   -8.5929 O   0  0  0  0  0  0  0  0  0  0  0  0
   17.4719   72.2077   -7.5849 O   0  0  0  0  0  0  0  0  0  0  0  0
   19.8452   71.7858   -7.2664 C   0  0  1  0  0  0  0  0  0  0  0  0
   18.4538   71.7682   -6.6699 C   0  0  2  0  0  0  0  0  0  0  0  0
   20.5847   70.7933   -6.3796 C   0  0  1  0  0  0  0  0  0  0  0  0
   18.2901   70.3052   -6.2945 C   0  0  2  0  0  0  0  0  0  0  0  0
   19.3535   71.8754   -9.1781 H   0  0  0  0  0  0  0  0  0  0  0  0
   17.6191   73.1444   -7.7919 H   0  0  0  0  0  0  0  0  0  0  0  0
   15.7252   69.1280   -6.4031 O   0  0  0  0  0  0  0  0  0  0  0  0
   15.0885   69.6607   -1.8693 O   0  0  0  0  0  0  0  0  0  0  0  0
   17.4327   70.1238   -5.1575 N   0  0  0  0  0  0  0  0  0  0  0  0
   15.4101   69.3954   -4.1451 N   0  0  0  0  0  0  0  0  0  0  0  0
   16.1627   69.5215   -5.3202 C   0  0  0  0  0  0  0  0  0  0  0  0
   17.8521   70.5386   -3.8993 C   0  0  0  0  0  0  0  0  0  0  0  0
   17.1236   70.4115   -2.7885 C   0  0  0  0  0  0  0  0  0  0  0  0
   15.7842   69.7932   -2.8717 C   0  0  0  0  0  0  0  0  0  0  0  0
   14.5215   68.9808   -4.2335 H   0  0  0  0  0  0  0  0  0  0  0  0
   23.1089   70.5985   -2.4604 O   0  0  0  0  0  0  0  0  0  0  0  0
   24.3521   71.4491   -1.8733 P   0  0  2  0  0  0  0  0  0  0  0  0
   24.2460   72.8555   -2.6677 O   0  0  0  0  0  0  0  0  0  0  0  0
   25.6821   70.7647   -2.0025 O   0  0  0  0  0  0  0  0  0  0  0  0
   23.9262   71.8040   -0.3584 O   0  0  0  0  0  0  0  0  0  0  0  0
   25.4428   71.1111    1.3235 O   0  0  0  0  0  0  0  0  0  0  0  0
   22.1368   72.1771    3.5600 O   0  0  0  0  0  0  0  0  0  0  0  0
   21.8209   70.6809    1.0708 O   0  0  0  0  0  0  0  0  0  0  0  0
   24.4558   73.9272    3.4584 O   0  0  0  0  0  0  0  0  0  0  0  0
   23.0445   72.2486    2.4605 C   0  0  2  0  0  0  0  0  0  0  0  0
   23.0639   70.9085    1.7250 C   0  0  2  0  0  0  0  0  0  0  0  0
   24.4339   72.5718    3.0146 C   0  0  1  0  0  0  0  0  0  0  0  0
   24.1870   70.8699    0.6876 C   0  0  1  0  0  0  0  0  0  0  0  0
   25.5138   72.3889    1.9521 C   0  0  1  0  0  0  0  0  0  0  0  0
   21.2469   71.9727    3.2321 H   0  0  0  0  0  0  0  0  0  0  0  0
   21.1037   70.7043    1.7231 H   0  0  0  0  0  0  0  0  0  0  0  0
   23.7729   74.0570    4.1349 H   0  0  0  0  0  0  0  0  0  0  0  0
   27.2898   73.6479    2.8252 O   0  0  0  0  0  0  0  0  0  0  0  0
   27.5247   71.3799    2.8237 O   0  0  0  0  0  0  0  0  0  0  0  0
   26.8729   72.3825    2.5727 C   0  0  0  0  0  0  0  0  0  0  0  0
  1  4  1  0
  1 24  1  0
  1  2  1  1
  1  3  2  0
 25 28  1  0
 25 24  1  0
 25 26  1  6
 25 27  2  0
  6 11  1  0
  6 12  1  0
 29 36  1  0
 29 37  1  0
  9  7  1  6
  7 13  1  0
 10  8  1  6
  8 14  1  0
  4  5  1  0
 36 28  1  6
 33 30  1  1
 30 38  1  0
 34 31  1  6
 31 39  1  0
 35 32  1  6
 32 40  1  0
 41 43  1  0
 15 19  2  0
 42 43  2  0
 16 22  2  0
 12 17  1  1
 17 19  1  0
 17 20  1  0
 18 19  1  0
 18 22  1  0
 18 23  1  0
  9 10  1  0
  9 11  1  0
 10 12  1  0
 11  5  1  1
 33 34  1  0
 33 35  1  0
 34 36  1  0
 35 37  1  0
 37 43  1  1
 20 21  2  0
 21 22  1  0
M  CHG  3   2  -1  26  -1  41  -1
M  END
>  <COMPND>  (169) 
    udp_gluA.pdb 

>  <AUTHOR>  (169) 
    GENERATED BY OPEN BABEL 3.1.1

>  <MASTER>  (169) 
        0    0    0    0    0    0    0    0   56    0   56    0

>  <minimizedAffinity>  (169) 
-7.40950

>  <CNNscore>  (169) 
0.6463228464

>  <CNNaffinity>  (169) 
4.4955282211

>  <CNN_VS>  (169) 
2.9055626392

>  <CNNaffinity_variance>  (169) 
0.0584568270

$$$$
170
     RDKit          3D

 43 45  0  0  0  0  0  0  0  0999 V2000
   23.2085   71.7627   -2.4781 P   0  0  2  0  0  0  0  0  0  0  0  0
   23.4121   73.1493   -1.6688 O   0  0  0  0  0  0  0  0  0  0  0  0
   24.4534   71.2057   -3.1038 O   0  0  0  0  0  0  0  0  0  0  0  0
   21.9926   72.0823   -3.4967 O   0  0  0  0  0  0  0  0  0  0  0  0
   21.4464   71.0173   -4.2528 C   0  0  0  0  0  0  0  0  0  0  0  0
   21.0399   70.3253   -6.5185 O   0  0  0  0  0  0  0  0  0  0  0  0
   22.6360   72.7267   -7.3416 O   0  0  0  0  0  0  0  0  0  0  0  0
   20.0670   73.5633   -7.7113 O   0  0  0  0  0  0  0  0  0  0  0  0
   21.7348   72.5732   -6.2449 C   0  0  1  0  0  0  0  0  0  0  0  0
   20.3038   72.5664   -6.7393 C   0  0  2  0  0  0  0  0  0  0  0  0
   21.8912   71.1590   -5.7028 C   0  0  1  0  0  0  0  0  0  0  0  0
   20.1701   71.1605   -7.2990 C   0  0  2  0  0  0  0  0  0  0  0  0
   22.5542   73.6228   -7.7048 H   0  0  0  0  0  0  0  0  0  0  0  0
   20.1638   74.4397   -7.3058 H   0  0  0  0  0  0  0  0  0  0  0  0
   18.6412   70.2624   -9.4973 O   0  0  0  0  0  0  0  0  0  0  0  0
   15.0357   69.2509   -6.8101 O   0  0  0  0  0  0  0  0  0  0  0  0
   18.8291   70.6573   -7.2023 N   0  0  0  0  0  0  0  0  0  0  0  0
   16.8466   69.7604   -8.1569 N   0  0  0  0  0  0  0  0  0  0  0  0
   18.1491   70.2317   -8.3678 C   0  0  0  0  0  0  0  0  0  0  0  0
   18.2021   70.5877   -5.9641 C   0  0  0  0  0  0  0  0  0  0  0  0
   16.9601   70.1360   -5.7789 C   0  0  0  0  0  0  0  0  0  0  0  0
   16.1803   69.6727   -6.9453 C   0  0  0  0  0  0  0  0  0  0  0  0
   16.3524   69.4604   -8.9539 H   0  0  0  0  0  0  0  0  0  0  0  0
   22.5181   70.7992   -1.3791 O   0  0  0  0  0  0  0  0  0  0  0  0
   21.2531   71.0398   -0.4016 P   0  0  2  0  0  0  0  0  0  0  0  0
   20.9971   69.5756    0.2394 O   0  0  0  0  0  0  0  0  0  0  0  0
   20.0543   71.6356   -1.0812 O   0  0  0  0  0  0  0  0  0  0  0  0
   21.8388   71.9207    0.8164 O   0  0  0  0  0  0  0  0  0  0  0  0
   23.8276   70.8655    1.5515 O   0  0  0  0  0  0  0  0  0  0  0  0
   23.6359   74.1406    4.0626 O   0  0  0  0  0  0  0  0  0  0  0  0
   21.2277   72.6079    3.4413 O   0  0  0  0  0  0  0  0  0  0  0  0
   25.5134   74.1113    1.8434 O   0  0  0  0  0  0  0  0  0  0  0  0
   23.4374   73.4156    2.8489 C   0  0  2  0  0  0  0  0  0  0  0  0
   22.5518   72.1989    3.1186 C   0  0  2  0  0  0  0  0  0  0  0  0
   24.8083   72.9723    2.3332 C   0  0  1  0  0  0  0  0  0  0  0  0
   22.5049   71.2756    1.9003 C   0  0  1  0  0  0  0  0  0  0  0  0
   24.6763   71.9567    1.2020 C   0  0  1  0  0  0  0  0  0  0  0  0
   22.7780   74.4325    4.4091 H   0  0  0  0  0  0  0  0  0  0  0  0
   21.2500   73.1942    4.2134 H   0  0  0  0  0  0  0  0  0  0  0  0
   25.6041   74.7656    2.5537 H   0  0  0  0  0  0  0  0  0  0  0  0
   26.8720   71.5568    1.9233 O   0  0  0  0  0  0  0  0  0  0  0  0
   26.2321   70.5967   -0.0434 O   0  0  0  0  0  0  0  0  0  0  0  0
   25.9859   71.2901    0.9320 C   0  0  0  0  0  0  0  0  0  0  0  0
  1  4  1  0
  1 24  1  0
  1  2  1  1
  1  3  2  0
 25 28  1  0
 25 24  1  0
 25 26  1  1
 25 27  2  0
  6 11  1  0
  6 12  1  0
 29 36  1  0
 29 37  1  0
  9  7  1  6
  7 13  1  0
 10  8  1  6
  8 14  1  0
  4  5  1  0
 36 28  1  6
 33 30  1  1
 30 38  1  0
 34 31  1  6
 31 39  1  0
 35 32  1  6
 32 40  1  0
 41 43  1  0
 15 19  2  0
 42 43  2  0
 16 22  2  0
 12 17  1  1
 17 19  1  0
 17 20  1  0
 18 19  1  0
 18 22  1  0
 18 23  1  0
  9 10  1  0
  9 11  1  0
 10 12  1  0
 11  5  1  1
 33 34  1  0
 33 35  1  0
 34 36  1  0
 35 37  1  0
 37 43  1  1
 20 21  2  0
 21 22  1  0
M  CHG  3   2  -1  26  -1  41  -1
M  END
>  <COMPND>  (170) 
    udp_gluA.pdb 

>  <AUTHOR>  (170) 
    GENERATED BY OPEN BABEL 3.1.1

>  <MASTER>  (170) 
        0    0    0    0    0    0    0    0   56    0   56    0

>  <minimizedAffinity>  (170) 
-7.17140

>  <CNNscore>  (170) 
0.6251361370

>  <CNNaffinity>  (170) 
4.4759702682

>  <CNN_VS>  (170) 
2.7980906963

>  <CNNaffinity_variance>  (170) 
0.3366598785

$$$$
171
     RDKit          3D

 43 45  0  0  0  0  0  0  0  0999 V2000
   23.9980   72.1058   -2.9423 P   0  0  2  0  0  0  0  0  0  0  0  0
   23.7338   70.5266   -3.1774 O   0  0  0  0  0  0  0  0  0  0  0  0
   25.1689   72.6706   -3.6918 O   0  0  0  0  0  0  0  0  0  0  0  0
   24.0564   72.2545   -1.3323 O   0  0  0  0  0  0  0  0  0  0  0  0
   24.9294   71.4086   -0.6064 C   0  0  0  0  0  0  0  0  0  0  0  0
   24.7125   70.5212    1.6170 O   0  0  0  0  0  0  0  0  0  0  0  0
   21.8751   69.8842    0.8855 O   0  0  0  0  0  0  0  0  0  0  0  0
   21.6135   72.1655    2.3564 O   0  0  0  0  0  0  0  0  0  0  0  0
   22.6771   71.0024    0.5049 C   0  0  1  0  0  0  0  0  0  0  0  0
   22.8296   71.9585    1.6689 C   0  0  2  0  0  0  0  0  0  0  0  0
   24.1046   70.5110    0.3071 C   0  0  1  0  0  0  0  0  0  0  0  0
   23.8708   71.2537    2.5216 C   0  0  2  0  0  0  0  0  0  0  0  0
   20.9583   70.1735    1.0177 H   0  0  0  0  0  0  0  0  0  0  0  0
   20.9843   72.6171    1.7716 H   0  0  0  0  0  0  0  0  0  0  0  0
   23.1521   72.3305    5.0317 O   0  0  0  0  0  0  0  0  0  0  0  0
   27.0511   74.7734    5.3046 O   0  0  0  0  0  0  0  0  0  0  0  0
   24.6795   72.1733    3.2707 N   0  0  0  0  0  0  0  0  0  0  0  0
   25.0942   73.5470    5.1647 N   0  0  0  0  0  0  0  0  0  0  0  0
   24.2262   72.6547    4.5217 C   0  0  0  0  0  0  0  0  0  0  0  0
   25.9063   72.5877    2.7667 C   0  0  0  0  0  0  0  0  0  0  0  0
   26.7228   73.4387    3.3913 C   0  0  0  0  0  0  0  0  0  0  0  0
   26.3235   73.9891    4.7032 C   0  0  0  0  0  0  0  0  0  0  0  0
   24.7993   73.8973    6.0363 H   0  0  0  0  0  0  0  0  0  0  0  0
   22.5737   72.7718   -3.3174 O   0  0  0  0  0  0  0  0  0  0  0  0
   21.9877   73.3000   -4.7284 P   0  0  2  0  0  0  0  0  0  0  0  0
   22.9014   72.5296   -5.8201 O   0  0  0  0  0  0  0  0  0  0  0  0
   21.9810   74.7945   -4.8717 O   0  0  0  0  0  0  0  0  0  0  0  0
   20.5352   72.6091   -4.8528 O   0  0  0  0  0  0  0  0  0  0  0  0
   20.2588   70.4182   -3.9968 O   0  0  0  0  0  0  0  0  0  0  0  0
   16.8807   70.8386   -6.3377 O   0  0  0  0  0  0  0  0  0  0  0  0
   19.4712   71.7959   -7.2905 O   0  0  0  0  0  0  0  0  0  0  0  0
   16.6821   71.0208   -3.4432 O   0  0  0  0  0  0  0  0  0  0  0  0
   17.9373   71.2773   -5.4838 C   0  0  2  0  0  0  0  0  0  0  0  0
   19.2846   70.9777   -6.1414 C   0  0  2  0  0  0  0  0  0  0  0  0
   17.8145   70.5266   -4.1558 C   0  0  1  0  0  0  0  0  0  0  0  0
   20.4361   71.2207   -5.1647 C   0  0  1  0  0  0  0  0  0  0  0  0
   19.0569   70.7182   -3.2907 C   0  0  1  0  0  0  0  0  0  0  0  0
   16.9384   71.3023   -7.1881 H   0  0  0  0  0  0  0  0  0  0  0  0
   18.7439   71.6470   -7.9144 H   0  0  0  0  0  0  0  0  0  0  0  0
   15.8846   70.9050   -3.9830 H   0  0  0  0  0  0  0  0  0  0  0  0
   18.1057   68.8029   -2.3272 O   0  0  0  0  0  0  0  0  0  0  0  0
   19.8551   69.7628   -1.2240 O   0  0  0  0  0  0  0  0  0  0  0  0
   19.0755   69.7366   -2.1645 C   0  0  0  0  0  0  0  0  0  0  0  0
  1  4  1  0
  1 24  1  0
  1  2  1  1
  1  3  2  0
 25 28  1  0
 25 24  1  0
 25 26  1  6
 25 27  2  0
  6 11  1  0
  6 12  1  0
 29 36  1  0
 29 37  1  0
  9  7  1  1
  7 13  1  0
 10  8  1  1
  8 14  1  0
  4  5  1  0
 36 28  1  1
 33 30  1  6
 30 38  1  0
 34 31  1  6
 31 39  1  0
 35 32  1  1
 32 40  1  0
 41 43  1  0
 15 19  2  0
 42 43  2  0
 16 22  2  0
 12 17  1  6
 17 19  1  0
 17 20  1  0
 18 19  1  0
 18 22  1  0
 18 23  1  0
  9 10  1  0
  9 11  1  0
 10 12  1  0
 11  5  1  6
 33 34  1  0
 33 35  1  0
 34 36  1  0
 35 37  1  0
 37 43  1  1
 20 21  2  0
 21 22  1  0
M  CHG  3   2  -1  26  -1  41  -1
M  END
>  <COMPND>  (171) 
    udp_gluA.pdb 

>  <AUTHOR>  (171) 
    GENERATED BY OPEN BABEL 3.1.1

>  <MASTER>  (171) 
        0    0    0    0    0    0    0    0   56    0   56    0

>  <minimizedAffinity>  (171) 
-7.50341

>  <CNNscore>  (171) 
0.5080479383

>  <CNNaffinity>  (171) 
4.2237176895

>  <CNN_VS>  (171) 
2.1458511353

>  <CNNaffinity_variance>  (171) 
0.2256219089

$$$$
172
     RDKit          3D

 43 45  0  0  0  0  0  0  0  0999 V2000
   18.1583   73.5289   -1.0765 P   0  0  2  0  0  0  0  0  0  0  0  0
   17.8636   73.9620    0.4547 O   0  0  0  0  0  0  0  0  0  0  0  0
   19.2849   74.2671   -1.7381 O   0  0  0  0  0  0  0  0  0  0  0  0
   16.7163   73.6530   -1.7998 O   0  0  0  0  0  0  0  0  0  0  0  0
   16.6456   73.4726   -3.2023 C   0  0  0  0  0  0  0  0  0  0  0  0
   15.4098   72.3772   -4.9489 O   0  0  0  0  0  0  0  0  0  0  0  0
   13.9300   70.9612   -2.7588 O   0  0  0  0  0  0  0  0  0  0  0  0
   15.7173   69.0752   -3.5864 O   0  0  0  0  0  0  0  0  0  0  0  0
   15.3039   71.3452   -2.8194 C   0  0  1  0  0  0  0  0  0  0  0  0
   16.0619   70.4336   -3.7611 C   0  0  2  0  0  0  0  0  0  0  0  0
   15.3858   72.6850   -3.5382 C   0  0  1  0  0  0  0  0  0  0  0  0
   15.6494   70.9714   -5.1207 C   0  0  2  0  0  0  0  0  0  0  0  0
   13.8524   70.1077   -2.3036 H   0  0  0  0  0  0  0  0  0  0  0  0
   16.0009   68.7803   -2.7063 H   0  0  0  0  0  0  0  0  0  0  0  0
   15.2671   69.6178   -7.5698 O   0  0  0  0  0  0  0  0  0  0  0  0
   19.6344   70.3342   -8.8573 O   0  0  0  0  0  0  0  0  0  0  0  0
   16.6695   70.7896   -6.1143 N   0  0  0  0  0  0  0  0  0  0  0  0
   17.4429   69.9750   -8.2083 N   0  0  0  0  0  0  0  0  0  0  0  0
   16.3738   70.0942   -7.3106 C   0  0  0  0  0  0  0  0  0  0  0  0
   17.9448   71.2983   -5.9002 C   0  0  0  0  0  0  0  0  0  0  0  0
   18.9536   71.1769   -6.7653 C   0  0  0  0  0  0  0  0  0  0  0  0
   18.7284   70.4633   -8.0394 C   0  0  0  0  0  0  0  0  0  0  0  0
   17.2617   69.4930   -9.0474 H   0  0  0  0  0  0  0  0  0  0  0  0
   18.3733   71.9306   -0.9665 O   0  0  0  0  0  0  0  0  0  0  0  0
   19.4057   70.9439   -1.7243 P   0  0  2  0  0  0  0  0  0  0  0  0
   19.4533   71.5423   -3.2276 O   0  0  0  0  0  0  0  0  0  0  0  0
   19.0366   69.4906   -1.6486 O   0  0  0  0  0  0  0  0  0  0  0  0
   20.8485   71.3017   -1.0977 O   0  0  0  0  0  0  0  0  0  0  0  0
   22.7065   70.8697   -2.5015 O   0  0  0  0  0  0  0  0  0  0  0  0
   24.5457   71.6122    1.1226 O   0  0  0  0  0  0  0  0  0  0  0  0
   22.1207   69.9879    0.9979 O   0  0  0  0  0  0  0  0  0  0  0  0
   24.5805   73.6282   -0.9715 O   0  0  0  0  0  0  0  0  0  0  0  0
   23.5390   71.7496    0.1198 C   0  0  2  0  0  0  0  0  0  0  0  0
   22.8813   70.3930   -0.1344 C   0  0  2  0  0  0  0  0  0  0  0  0
   24.2095   72.2634   -1.1562 C   0  0  1  0  0  0  0  0  0  0  0  0
   21.9635   70.4503   -1.3563 C   0  0  1  0  0  0  0  0  0  0  0  0
   23.2701   72.1712   -2.3552 C   0  0  1  0  0  0  0  0  0  0  0  0
   24.1428   71.2867    1.9430 H   0  0  0  0  0  0  0  0  0  0  0  0
   22.6968   69.9496    1.7770 H   0  0  0  0  0  0  0  0  0  0  0  0
   25.1784   73.7007   -0.2112 H   0  0  0  0  0  0  0  0  0  0  0  0
   23.2040   72.1742   -4.6998 O   0  0  0  0  0  0  0  0  0  0  0  0
   25.2076   72.6380   -3.7151 O   0  0  0  0  0  0  0  0  0  0  0  0
   24.0212   72.3572   -3.6332 C   0  0  0  0  0  0  0  0  0  0  0  0
  1  4  1  0
  1 24  1  0
  1  2  1  1
  1  3  2  0
 25 28  1  0
 25 24  1  0
 25 26  1  6
 25 27  2  0
  6 11  1  0
  6 12  1  0
 29 36  1  0
 29 37  1  0
  9  7  1  6
  7 13  1  0
 10  8  1  6
  8 14  1  0
  4  5  1  0
 36 28  1  1
 33 30  1  1
 30 38  1  0
 34 31  1  1
 31 39  1  0
 35 32  1  1
 32 40  1  0
 41 43  1  0
 15 19  2  0
 42 43  2  0
 16 22  2  0
 12 17  1  6
 17 19  1  0
 17 20  1  0
 18 19  1  0
 18 22  1  0
 18 23  1  0
  9 10  1  0
  9 11  1  0
 10 12  1  0
 11  5  1  1
 33 34  1  0
 33 35  1  0
 34 36  1  0
 35 37  1  0
 37 43  1  6
 20 21  2  0
 21 22  1  0
M  CHG  3   2  -1  26  -1  41  -1
M  END
>  <COMPND>  (172) 
    udp_gluA.pdb 

>  <AUTHOR>  (172) 
    GENERATED BY OPEN BABEL 3.1.1

>  <MASTER>  (172) 
        0    0    0    0    0    0    0    0   56    0   56    0

>  <minimizedAffinity>  (172) 
-6.74586

>  <CNNscore>  (172) 
0.4996252358

>  <CNNaffinity>  (172) 
4.3415784836

>  <CNN_VS>  (172) 
2.1691622734

>  <CNNaffinity_variance>  (172) 
0.1471859664

$$$$
173
     RDKit          3D

 43 45  0  0  0  0  0  0  0  0999 V2000
   24.1529   71.8997   -2.5229 P   0  0  2  0  0  0  0  0  0  0  0  0
   24.5444   73.4488   -2.7799 O   0  0  0  0  0  0  0  0  0  0  0  0
   25.2094   70.9067   -2.9094 O   0  0  0  0  0  0  0  0  0  0  0  0
   22.7251   71.7315   -3.2653 O   0  0  0  0  0  0  0  0  0  0  0  0
   22.0825   72.8897   -3.7655 C   0  0  0  0  0  0  0  0  0  0  0  0
   21.6491   71.6658   -5.7883 O   0  0  0  0  0  0  0  0  0  0  0  0
   21.9615   74.2828   -7.2184 O   0  0  0  0  0  0  0  0  0  0  0  0
   19.2532   73.9865   -7.1029 O   0  0  0  0  0  0  0  0  0  0  0  0
   21.3877   74.0152   -5.9387 C   0  0  1  0  0  0  0  0  0  0  0  0
   20.0291   73.3666   -6.0987 C   0  0  2  0  0  0  0  0  0  0  0  0
   22.1965   72.9035   -5.2844 C   0  0  1  0  0  0  0  0  0  0  0  0
   20.4019   71.9358   -6.4477 C   0  0  2  0  0  0  0  0  0  0  0  0
   21.4615   74.9901   -7.6558 H   0  0  0  0  0  0  0  0  0  0  0  0
   19.0418   74.8947   -6.8335 H   0  0  0  0  0  0  0  0  0  0  0  0
   18.9968   70.1675   -8.1435 O   0  0  0  0  0  0  0  0  0  0  0  0
   16.6622   68.3453   -4.6117 O   0  0  0  0  0  0  0  0  0  0  0  0
   19.4213   70.9887   -5.9978 N   0  0  0  0  0  0  0  0  0  0  0  0
   17.8347   69.2623   -6.3830 N   0  0  0  0  0  0  0  0  0  0  0  0
   18.7729   70.1464   -6.9317 C   0  0  0  0  0  0  0  0  0  0  0  0
   19.1120   70.8999   -4.6460 C   0  0  0  0  0  0  0  0  0  0  0  0
   18.2154   70.0520   -4.1379 C   0  0  0  0  0  0  0  0  0  0  0  0
   17.4927   69.1377   -5.0461 C   0  0  0  0  0  0  0  0  0  0  0  0
   17.3688   68.6672   -7.0139 H   0  0  0  0  0  0  0  0  0  0  0  0
   23.7524   71.8817   -0.9569 O   0  0  0  0  0  0  0  0  0  0  0  0
   24.2486   70.9332    0.2547 P   0  0  2  0  0  0  0  0  0  0  0  0
   25.6460   70.3299   -0.2964 O   0  0  0  0  0  0  0  0  0  0  0  0
   23.2486   69.8944    0.6727 O   0  0  0  0  0  0  0  0  0  0  0  0
   24.6802   71.9563    1.4249 O   0  0  0  0  0  0  0  0  0  0  0  0
   23.3594   73.1740    2.9683 O   0  0  0  0  0  0  0  0  0  0  0  0
   26.5213   75.7589    2.3446 O   0  0  0  0  0  0  0  0  0  0  0  0
   25.3222   74.3182    0.1039 O   0  0  0  0  0  0  0  0  0  0  0  0
   26.3597   74.2179    4.8043 O   0  0  0  0  0  0  0  0  0  0  0  0
   25.8794   74.4889    2.4590 C   0  0  2  0  0  0  0  0  0  0  0  0
   24.7691   74.3807    1.4134 C   0  0  2  0  0  0  0  0  0  0  0  0
   25.2950   74.3797    3.8691 C   0  0  1  0  0  0  0  0  0  0  0  0
   23.9122   73.1367    1.6520 C   0  0  1  0  0  0  0  0  0  0  0  0
   24.3531   73.1853    3.9908 C   0  0  1  0  0  0  0  0  0  0  0  0
   26.9004   75.8509    1.4563 H   0  0  0  0  0  0  0  0  0  0  0  0
   25.8674   75.1044   -0.0543 H   0  0  0  0  0  0  0  0  0  0  0  0
   26.9665   74.9716    4.7370 H   0  0  0  0  0  0  0  0  0  0  0  0
   24.2845   72.9045    6.3185 O   0  0  0  0  0  0  0  0  0  0  0  0
   22.3768   73.6295    5.3016 O   0  0  0  0  0  0  0  0  0  0  0  0
   23.5441   73.2732    5.2438 C   0  0  0  0  0  0  0  0  0  0  0  0
  1  4  1  0
  1 24  1  0
  1  2  1  6
  1  3  2  0
 25 28  1  0
 25 24  1  0
 25 26  1  6
 25 27  2  0
  6 11  1  0
  6 12  1  0
 29 36  1  0
 29 37  1  0
  9  7  1  6
  7 13  1  0
 10  8  1  6
  8 14  1  0
  4  5  1  0
 36 28  1  1
 33 30  1  1
 30 38  1  0
 34 31  1  6
 31 39  1  0
 35 32  1  1
 32 40  1  0
 41 43  1  0
 15 19  2  0
 42 43  2  0
 16 22  2  0
 12 17  1  1
 17 19  1  0
 17 20  1  0
 18 19  1  0
 18 22  1  0
 18 23  1  0
  9 10  1  0
  9 11  1  0
 10 12  1  0
 11  5  1  1
 33 34  1  0
 33 35  1  0
 34 36  1  0
 35 37  1  0
 37 43  1  1
 20 21  2  0
 21 22  1  0
M  CHG  3   2  -1  26  -1  41  -1
M  END
>  <COMPND>  (173) 
    udp_gluA.pdb 

>  <AUTHOR>  (173) 
    GENERATED BY OPEN BABEL 3.1.1

>  <MASTER>  (173) 
        0    0    0    0    0    0    0    0   56    0   56    0

>  <minimizedAffinity>  (173) 
-7.08457

>  <CNNscore>  (173) 
0.4789401889

>  <CNNaffinity>  (173) 
4.2632875443

>  <CNN_VS>  (173) 
2.0418596268

>  <CNNaffinity_variance>  (173) 
0.0125516728

$$$$
174
     RDKit          3D

 43 45  0  0  0  0  0  0  0  0999 V2000
   22.3914   73.4374   -5.6495 P   0  0  2  0  0  0  0  0  0  0  0  0
   23.7367   72.6882   -6.1473 O   0  0  0  0  0  0  0  0  0  0  0  0
   22.1904   74.8159   -6.2073 O   0  0  0  0  0  0  0  0  0  0  0  0
   22.4645   73.3360   -4.0363 O   0  0  0  0  0  0  0  0  0  0  0  0
   21.4372   73.9419   -3.2735 C   0  0  0  0  0  0  0  0  0  0  0  0
   21.2413   71.7667   -2.2694 O   0  0  0  0  0  0  0  0  0  0  0  0
   18.3957   72.5021   -1.6752 O   0  0  0  0  0  0  0  0  0  0  0  0
   19.6276   72.9001    0.7248 O   0  0  0  0  0  0  0  0  0  0  0  0
   19.5621   73.3255   -1.6683 C   0  0  1  0  0  0  0  0  0  0  0  0
   20.4058   73.0289   -0.4466 C   0  0  2  0  0  0  0  0  0  0  0  0
   20.4690   72.8649   -2.8013 C   0  0  1  0  0  0  0  0  0  0  0  0
   21.0872   71.7298   -0.8417 C   0  0  2  0  0  0  0  0  0  0  0  0
   17.8009   72.7775   -0.9596 H   0  0  0  0  0  0  0  0  0  0  0  0
   19.2153   73.7534    0.9344 H   0  0  0  0  0  0  0  0  0  0  0  0
   21.9135   69.4618    0.6244 O   0  0  0  0  0  0  0  0  0  0  0  0
   26.0719   71.2759    1.4373 O   0  0  0  0  0  0  0  0  0  0  0  0
   22.3805   71.5831   -0.2361 N   0  0  0  0  0  0  0  0  0  0  0  0
   23.9835   70.3679    1.0287 N   0  0  0  0  0  0  0  0  0  0  0  0
   22.6952   70.4035    0.4792 C   0  0  0  0  0  0  0  0  0  0  0  0
   23.3212   72.5989   -0.3549 C   0  0  0  0  0  0  0  0  0  0  0  0
   24.5453   72.5504    0.1743 C   0  0  0  0  0  0  0  0  0  0  0  0
   24.9534   71.3531    0.9380 C   0  0  0  0  0  0  0  0  0  0  0  0
   24.2249   69.5575    1.5330 H   0  0  0  0  0  0  0  0  0  0  0  0
   21.2271   72.3817   -6.0275 O   0  0  0  0  0  0  0  0  0  0  0  0
   20.8350   71.6935   -7.4369 P   0  0  2  0  0  0  0  0  0  0  0  0
   21.5970   70.2666   -7.3764 O   0  0  0  0  0  0  0  0  0  0  0  0
   21.1711   72.5234   -8.6420 O   0  0  0  0  0  0  0  0  0  0  0  0
   19.2709   71.3263   -7.2919 O   0  0  0  0  0  0  0  0  0  0  0  0
   18.6845   69.5749   -5.8094 O   0  0  0  0  0  0  0  0  0  0  0  0
   15.1959   70.0500   -7.9709 O   0  0  0  0  0  0  0  0  0  0  0  0
   17.7901   70.1178   -9.3125 O   0  0  0  0  0  0  0  0  0  0  0  0
   15.3799   71.0695   -5.2547 O   0  0  0  0  0  0  0  0  0  0  0  0
   16.4103   70.4687   -7.3481 C   0  0  2  0  0  0  0  0  0  0  0  0
   17.5882   69.7128   -7.9635 C   0  0  2  0  0  0  0  0  0  0  0  0
   16.3046   70.1628   -5.8524 C   0  0  1  0  0  0  0  0  0  0  0  0
   18.8723   69.9620   -7.1711 C   0  0  1  0  0  0  0  0  0  0  0  0
   17.6542   70.3131   -5.1563 C   0  0  1  0  0  0  0  0  0  0  0  0
   15.2400   70.2345   -8.9224 H   0  0  0  0  0  0  0  0  0  0  0  0
   16.9791   69.9627   -9.8211 H   0  0  0  0  0  0  0  0  0  0  0  0
   14.5167   70.9840   -5.6888 H   0  0  0  0  0  0  0  0  0  0  0  0
   16.5098   68.9383   -3.6391 O   0  0  0  0  0  0  0  0  0  0  0  0
   18.4676   69.8669   -2.9290 O   0  0  0  0  0  0  0  0  0  0  0  0
   17.6183   69.7043   -3.7923 C   0  0  0  0  0  0  0  0  0  0  0  0
  1  4  1  0
  1 24  1  0
  1  2  1  6
  1  3  2  0
 25 28  1  0
 25 24  1  0
 25 26  1  6
 25 27  2  0
  6 11  1  0
  6 12  1  0
 29 36  1  0
 29 37  1  0
  9  7  1  1
  7 13  1  0
 10  8  1  1
  8 14  1  0
  4  5  1  0
 36 28  1  1
 33 30  1  6
 30 38  1  0
 34 31  1  6
 31 39  1  0
 35 32  1  1
 32 40  1  0
 41 43  1  0
 15 19  2  0
 42 43  2  0
 16 22  2  0
 12 17  1  1
 17 19  1  0
 17 20  1  0
 18 19  1  0
 18 22  1  0
 18 23  1  0
  9 10  1  0
  9 11  1  0
 10 12  1  0
 11  5  1  1
 33 34  1  0
 33 35  1  0
 34 36  1  0
 35 37  1  0
 37 43  1  1
 20 21  2  0
 21 22  1  0
M  CHG  3   2  -1  26  -1  41  -1
M  END
>  <COMPND>  (174) 
    udp_gluA.pdb 

>  <AUTHOR>  (174) 
    GENERATED BY OPEN BABEL 3.1.1

>  <MASTER>  (174) 
        0    0    0    0    0    0    0    0   56    0   56    0

>  <minimizedAffinity>  (174) 
-7.93374

>  <CNNscore>  (174) 
0.4737893343

>  <CNNaffinity>  (174) 
4.4649362564

>  <CNN_VS>  (174) 
2.1154391766

>  <CNNaffinity_variance>  (174) 
0.1579044759

$$$$
175
     RDKit          3D

 43 45  0  0  0  0  0  0  0  0999 V2000
   22.5530   73.5147   -5.8778 P   0  0  2  0  0  0  0  0  0  0  0  0
   22.1793   74.7921   -6.7984 O   0  0  0  0  0  0  0  0  0  0  0  0
   23.4970   72.5336   -6.5088 O   0  0  0  0  0  0  0  0  0  0  0  0
   21.1145   72.9207   -5.4352 O   0  0  0  0  0  0  0  0  0  0  0  0
   20.1703   72.6135   -6.4444 C   0  0  0  0  0  0  0  0  0  0  0  0
   19.5839   70.3937   -5.7329 O   0  0  0  0  0  0  0  0  0  0  0  0
   20.1393   69.5434   -8.5542 O   0  0  0  0  0  0  0  0  0  0  0  0
   17.4169   69.6925   -8.5017 O   0  0  0  0  0  0  0  0  0  0  0  0
   19.5607   70.7569   -8.0734 C   0  0  1  0  0  0  0  0  0  0  0  0
   18.1408   70.5123   -7.6082 C   0  0  2  0  0  0  0  0  0  0  0  0
   20.2620   71.1292   -6.7743 C   0  0  1  0  0  0  0  0  0  0  0  0
   18.3607   69.8532   -6.2573 C   0  0  2  0  0  0  0  0  0  0  0  0
   19.7072   69.2853   -9.3839 H   0  0  0  0  0  0  0  0  0  0  0  0
   17.3031   70.1567   -9.3464 H   0  0  0  0  0  0  0  0  0  0  0  0
   16.6684   67.8842   -5.1458 O   0  0  0  0  0  0  0  0  0  0  0  0
   14.3080   71.0177   -2.7264 O   0  0  0  0  0  0  0  0  0  0  0  0
   17.2958   70.1268   -5.3342 N   0  0  0  0  0  0  0  0  0  0  0  0
   15.4937   69.4469   -3.9427 N   0  0  0  0  0  0  0  0  0  0  0  0
   16.5041   69.0655   -4.8353 C   0  0  0  0  0  0  0  0  0  0  0  0
   17.0456   71.4329   -4.9313 C   0  0  0  0  0  0  0  0  0  0  0  0
   16.0790   71.7809   -4.0797 C   0  0  0  0  0  0  0  0  0  0  0  0
   15.2060   70.7321   -3.5127 C   0  0  0  0  0  0  0  0  0  0  0  0
   14.9281   68.7255   -3.5834 H   0  0  0  0  0  0  0  0  0  0  0  0
   23.0994   74.1953   -4.5173 O   0  0  0  0  0  0  0  0  0  0  0  0
   23.9774   73.5862   -3.3042 P   0  0  2  0  0  0  0  0  0  0  0  0
   24.1504   74.8468   -2.3035 O   0  0  0  0  0  0  0  0  0  0  0  0
   25.2706   72.9570   -3.7354 O   0  0  0  0  0  0  0  0  0  0  0  0
   22.9721   72.5884   -2.5321 O   0  0  0  0  0  0  0  0  0  0  0  0
   24.1250   70.8531   -1.4057 O   0  0  0  0  0  0  0  0  0  0  0  0
   20.1858   69.7226   -0.8832 O   0  0  0  0  0  0  0  0  0  0  0  0
   21.1022   70.7502   -3.4597 O   0  0  0  0  0  0  0  0  0  0  0  0
   21.6682   70.9075    1.3190 O   0  0  0  0  0  0  0  0  0  0  0  0
   21.2683   70.6396   -1.0418 C   0  0  2  0  0  0  0  0  0  0  0  0
   21.9590   70.3890   -2.3826 C   0  0  2  0  0  0  0  0  0  0  0  0
   22.2490   70.4177    0.1118 C   0  0  1  0  0  0  0  0  0  0  0  0
   23.2567   71.1913   -2.4879 C   0  0  1  0  0  0  0  0  0  0  0  0
   23.5661   71.1501   -0.1280 C   0  0  1  0  0  0  0  0  0  0  0  0
   19.5495   69.8451   -1.6053 H   0  0  0  0  0  0  0  0  0  0  0  0
   20.2767   70.2450   -3.3990 H   0  0  0  0  0  0  0  0  0  0  0  0
   20.8291   70.4495    1.4831 H   0  0  0  0  0  0  0  0  0  0  0  0
   25.8165   70.5705    0.1901 O   0  0  0  0  0  0  0  0  0  0  0  0
   24.4353   70.4083    1.9970 O   0  0  0  0  0  0  0  0  0  0  0  0
   24.6189   70.6718    0.8181 C   0  0  0  0  0  0  0  0  0  0  0  0
  1  4  1  0
  1 24  1  0
  1  2  1  6
  1  3  2  0
 25 28  1  0
 25 24  1  0
 25 26  1  1
 25 27  2  0
  6 11  1  0
  6 12  1  0
 29 36  1  0
 29 37  1  0
  9  7  1  1
  7 13  1  0
 10  8  1  6
  8 14  1  0
  4  5  1  0
 36 28  1  1
 33 30  1  1
 30 38  1  0
 34 31  1  6
 31 39  1  0
 35 32  1  1
 32 40  1  0
 41 43  1  0
 15 19  2  0
 42 43  2  0
 16 22  2  0
 12 17  1  1
 17 19  1  0
 17 20  1  0
 18 19  1  0
 18 22  1  0
 18 23  1  0
  9 10  1  0
  9 11  1  0
 10 12  1  0
 11  5  1  1
 33 34  1  0
 33 35  1  0
 34 36  1  0
 35 37  1  0
 37 43  1  1
 20 21  2  0
 21 22  1  0
M  CHG  3   2  -1  26  -1  41  -1
M  END
>  <COMPND>  (175) 
    udp_gluA.pdb 

>  <AUTHOR>  (175) 
    GENERATED BY OPEN BABEL 3.1.1

>  <MASTER>  (175) 
        0    0    0    0    0    0    0    0   56    0   56    0

>  <minimizedAffinity>  (175) 
-7.95021

>  <CNNscore>  (175) 
0.4653857052

>  <CNNaffinity>  (175) 
4.3650031090

>  <CNN_VS>  (175) 
2.0314099789

>  <CNNaffinity_variance>  (175) 
0.1619232595

$$$$
176
     RDKit          3D

 43 45  0  0  0  0  0  0  0  0999 V2000
   21.3107   72.3178   -3.1151 P   0  0  2  0  0  0  0  0  0  0  0  0
   20.0956   72.6983   -2.1163 O   0  0  0  0  0  0  0  0  0  0  0  0
   21.4336   70.8570   -3.4357 O   0  0  0  0  0  0  0  0  0  0  0  0
   22.6074   72.9974   -2.4260 O   0  0  0  0  0  0  0  0  0  0  0  0
   22.6252   73.1454   -1.0180 C   0  0  0  0  0  0  0  0  0  0  0  0
   24.2777   71.8441    0.1454 O   0  0  0  0  0  0  0  0  0  0  0  0
   22.0186   70.0506    0.9650 O   0  0  0  0  0  0  0  0  0  0  0  0
   22.4221   71.5600    3.1999 O   0  0  0  0  0  0  0  0  0  0  0  0
   22.0328   71.4689    0.8015 C   0  0  1  0  0  0  0  0  0  0  0  0
   22.7698   72.1218    1.9517 C   0  0  2  0  0  0  0  0  0  0  0  0
   22.9339   71.7965   -0.3812 C   0  0  1  0  0  0  0  0  0  0  0  0
   24.2210   71.8688    1.5805 C   0  0  2  0  0  0  0  0  0  0  0  0
   21.4492   69.8169    1.7152 H   0  0  0  0  0  0  0  0  0  0  0  0
   21.4893   71.7485    3.3907 H   0  0  0  0  0  0  0  0  0  0  0  0
   26.9475   71.4768    2.2045 O   0  0  0  0  0  0  0  0  0  0  0  0
   27.4892   75.8866    3.4309 O   0  0  0  0  0  0  0  0  0  0  0  0
   25.0978   72.8972    2.0647 N   0  0  0  0  0  0  0  0  0  0  0  0
   27.2144   73.6732    2.8157 N   0  0  0  0  0  0  0  0  0  0  0  0
   26.4508   72.5955    2.3483 C   0  0  0  0  0  0  0  0  0  0  0  0
   24.6166   74.1872    2.2525 C   0  0  0  0  0  0  0  0  0  0  0  0
   25.3566   75.2042    2.6986 C   0  0  0  0  0  0  0  0  0  0  0  0
   26.7804   74.9732    3.0191 C   0  0  0  0  0  0  0  0  0  0  0  0
   28.1590   73.4871    3.0219 H   0  0  0  0  0  0  0  0  0  0  0  0
   21.0397   73.2675   -4.3947 O   0  0  0  0  0  0  0  0  0  0  0  0
   20.8166   72.9081   -5.9551 P   0  0  2  0  0  0  0  0  0  0  0  0
   22.1124   72.0076   -6.3161 O   0  0  0  0  0  0  0  0  0  0  0  0
   20.6287   74.1048   -6.8419 O   0  0  0  0  0  0  0  0  0  0  0  0
   19.5832   71.8684   -5.9633 O   0  0  0  0  0  0  0  0  0  0  0  0
   18.9934   69.6038   -5.5988 O   0  0  0  0  0  0  0  0  0  0  0  0
   17.8045   70.1621   -9.5158 O   0  0  0  0  0  0  0  0  0  0  0  0
   20.3421   71.2561   -8.5681 O   0  0  0  0  0  0  0  0  0  0  0  0
   15.8255   70.0780   -7.3881 O   0  0  0  0  0  0  0  0  0  0  0  0
   18.0583   70.5441   -8.1639 C   0  0  2  0  0  0  0  0  0  0  0  0
   19.5381   70.3338   -7.8419 C   0  0  2  0  0  0  0  0  0  0  0  0
   17.1870   69.6742   -7.2551 C   0  0  1  0  0  0  0  0  0  0  0  0
   19.8032   70.5120   -6.3463 C   0  0  1  0  0  0  0  0  0  0  0  0
   17.5962   69.8132   -5.7916 C   0  0  1  0  0  0  0  0  0  0  0  0
   18.3475   70.7017  -10.1118 H   0  0  0  0  0  0  0  0  0  0  0  0
   20.1788   71.1488   -9.5180 H   0  0  0  0  0  0  0  0  0  0  0  0
   15.5525   69.9944   -8.3151 H   0  0  0  0  0  0  0  0  0  0  0  0
   17.2905   68.8980   -3.6537 O   0  0  0  0  0  0  0  0  0  0  0  0
   16.2828   67.8281   -5.3970 O   0  0  0  0  0  0  0  0  0  0  0  0
   16.9778   68.7346   -4.9631 C   0  0  0  0  0  0  0  0  0  0  0  0
  1  4  1  0
  1 24  1  0
  1  2  1  1
  1  3  2  0
 25 28  1  0
 25 24  1  0
 25 26  1  6
 25 27  2  0
  6 11  1  0
  6 12  1  0
 29 36  1  0
 29 37  1  0
  9  7  1  1
  7 13  1  0
 10  8  1  1
  8 14  1  0
  4  5  1  0
 36 28  1  1
 33 30  1  6
 30 38  1  0
 34 31  1  6
 31 39  1  0
 35 32  1  1
 32 40  1  0
 41 43  1  0
 15 19  2  0
 42 43  2  0
 16 22  2  0
 12 17  1  6
 17 19  1  0
 17 20  1  0
 18 19  1  0
 18 22  1  0
 18 23  1  0
  9 10  1  0
  9 11  1  0
 10 12  1  0
 11  5  1  1
 33 34  1  0
 33 35  1  0
 34 36  1  0
 35 37  1  0
 37 43  1  1
 20 21  2  0
 21 22  1  0
M  CHG  3   2  -1  26  -1  41  -1
M  END
>  <COMPND>  (176) 
    udp_gluA.pdb 

>  <AUTHOR>  (176) 
    GENERATED BY OPEN BABEL 3.1.1

>  <MASTER>  (176) 
        0    0    0    0    0    0    0    0   56    0   56    0

>  <minimizedAffinity>  (176) 
-7.00156

>  <CNNscore>  (176) 
0.4601707757

>  <CNNaffinity>  (176) 
4.2469167709

>  <CNN_VS>  (176) 
1.9543069601

>  <CNNaffinity_variance>  (176) 
0.1791404188

$$$$
177
     RDKit          3D

 43 45  0  0  0  0  0  0  0  0999 V2000
   21.7141   70.6927   -0.1846 P   0  0  2  0  0  0  0  0  0  0  0  0
   22.4300   69.7774    0.9417 O   0  0  0  0  0  0  0  0  0  0  0  0
   21.2873   72.0535    0.2824 O   0  0  0  0  0  0  0  0  0  0  0  0
   20.5357   69.7467   -0.7627 O   0  0  0  0  0  0  0  0  0  0  0  0
   20.1452   69.9028   -2.1146 C   0  0  0  0  0  0  0  0  0  0  0  0
   18.6101   71.2838   -3.3451 O   0  0  0  0  0  0  0  0  0  0  0  0
   16.4347   69.9342   -1.7838 O   0  0  0  0  0  0  0  0  0  0  0  0
   16.3406   68.6371   -4.1807 O   0  0  0  0  0  0  0  0  0  0  0  0
   17.6584   69.3930   -2.2822 C   0  0  1  0  0  0  0  0  0  0  0  0
   17.5734   69.1985   -3.7813 C   0  0  2  0  0  0  0  0  0  0  0  0
   18.7309   70.4668   -2.1605 C   0  0  1  0  0  0  0  0  0  0  0  0
   17.7642   70.6156   -4.2945 C   0  0  2  0  0  0  0  0  0  0  0  0
   15.7341   69.2661   -1.8513 H   0  0  0  0  0  0  0  0  0  0  0  0
   16.2671   67.7353   -3.8294 H   0  0  0  0  0  0  0  0  0  0  0  0
   16.3732   70.4761   -6.7485 O   0  0  0  0  0  0  0  0  0  0  0  0
   20.2750   70.7608   -9.1855 O   0  0  0  0  0  0  0  0  0  0  0  0
   18.3918   70.6511   -5.5851 N   0  0  0  0  0  0  0  0  0  0  0  0
   18.3180   70.6170   -7.9599 N   0  0  0  0  0  0  0  0  0  0  0  0
   17.6018   70.5743   -6.7565 C   0  0  0  0  0  0  0  0  0  0  0  0
   19.7735   70.7626   -5.6817 C   0  0  0  0  0  0  0  0  0  0  0  0
   20.4420   70.8022   -6.8360 C   0  0  0  0  0  0  0  0  0  0  0  0
   19.6913   70.7265   -8.1065 C   0  0  0  0  0  0  0  0  0  0  0  0
   17.7897   70.5630   -8.7890 H   0  0  0  0  0  0  0  0  0  0  0  0
   22.7953   70.7016   -1.3861 O   0  0  0  0  0  0  0  0  0  0  0  0
   24.0245   71.7037   -1.7006 P   0  0  2  0  0  0  0  0  0  0  0  0
   24.9039   70.8820   -2.7831 O   0  0  0  0  0  0  0  0  0  0  0  0
   24.7900   72.1397   -0.4849 O   0  0  0  0  0  0  0  0  0  0  0  0
   23.3638   72.9098   -2.5439 O   0  0  0  0  0  0  0  0  0  0  0  0
   21.1111   73.1461   -3.2359 O   0  0  0  0  0  0  0  0  0  0  0  0
   23.1229   75.1896   -6.2099 O   0  0  0  0  0  0  0  0  0  0  0  0
   24.1566   72.6517   -5.1974 O   0  0  0  0  0  0  0  0  0  0  0  0
   21.6947   76.6529   -4.1436 O   0  0  0  0  0  0  0  0  0  0  0  0
   22.8973   74.7021   -4.8873 C   0  0  2  0  0  0  0  0  0  0  0  0
   22.8658   73.1736   -4.9036 C   0  0  2  0  0  0  0  0  0  0  0  0
   21.5564   75.2568   -4.4012 C   0  0  1  0  0  0  0  0  0  0  0  0
   22.4004   72.6215   -3.5556 C   0  0  1  0  0  0  0  0  0  0  0  0
   21.1002   74.5671   -3.1187 C   0  0  1  0  0  0  0  0  0  0  0  0
   23.9697   74.8499   -6.5398 H   0  0  0  0  0  0  0  0  0  0  0  0
   24.4583   72.9982   -6.0514 H   0  0  0  0  0  0  0  0  0  0  0  0
   21.9848   77.1037   -4.9520 H   0  0  0  0  0  0  0  0  0  0  0  0
   19.1066   75.5508   -3.8668 O   0  0  0  0  0  0  0  0  0  0  0  0
   19.0673   74.5483   -1.8193 O   0  0  0  0  0  0  0  0  0  0  0  0
   19.6646   74.8693   -2.8357 C   0  0  0  0  0  0  0  0  0  0  0  0
  1  4  1  0
  1 24  1  0
  1  2  1  1
  1  3  2  0
 25 28  1  0
 25 24  1  0
 25 26  1  6
 25 27  2  0
  6 11  1  0
  6 12  1  0
 29 36  1  0
 29 37  1  0
  9  7  1  6
  7 13  1  0
 10  8  1  1
  8 14  1  0
  4  5  1  0
 36 28  1  1
 33 30  1  6
 30 38  1  0
 34 31  1  1
 31 39  1  0
 35 32  1  1
 32 40  1  0
 41 43  1  0
 15 19  2  0
 42 43  2  0
 16 22  2  0
 12 17  1  6
 17 19  1  0
 17 20  1  0
 18 19  1  0
 18 22  1  0
 18 23  1  0
  9 10  1  0
  9 11  1  0
 10 12  1  0
 11  5  1  6
 33 34  1  0
 33 35  1  0
 34 36  1  0
 35 37  1  0
 37 43  1  6
 20 21  2  0
 21 22  1  0
M  CHG  3   2  -1  26  -1  41  -1
M  END
>  <COMPND>  (177) 
    udp_gluA.pdb 

>  <AUTHOR>  (177) 
    GENERATED BY OPEN BABEL 3.1.1

>  <MASTER>  (177) 
        0    0    0    0    0    0    0    0   56    0   56    0

>  <minimizedAffinity>  (177) 
-6.84027

>  <CNNscore>  (177) 
0.4460076392

>  <CNNaffinity>  (177) 
4.1257238388

>  <CNN_VS>  (177) 
1.8401043415

>  <CNNaffinity_variance>  (177) 
0.5186870098

$$$$
178
     RDKit          3D

 43 45  0  0  0  0  0  0  0  0999 V2000
   23.9734   73.3531   -3.9689 P   0  0  2  0  0  0  0  0  0  0  0  0
   24.0450   74.0595   -5.4232 O   0  0  0  0  0  0  0  0  0  0  0  0
   25.0631   72.3589   -3.6932 O   0  0  0  0  0  0  0  0  0  0  0  0
   22.4625   72.7798   -3.8894 O   0  0  0  0  0  0  0  0  0  0  0  0
   21.4893   73.3146   -4.7677 C   0  0  0  0  0  0  0  0  0  0  0  0
   20.9848   71.0804   -5.4967 O   0  0  0  0  0  0  0  0  0  0  0  0
   20.5332   72.2680   -8.2128 O   0  0  0  0  0  0  0  0  0  0  0  0
   17.9937   71.9512   -7.2712 O   0  0  0  0  0  0  0  0  0  0  0  0
   20.2402   72.8154   -6.9271 C   0  0  1  0  0  0  0  0  0  0  0  0
   19.0302   72.1296   -6.3288 C   0  0  2  0  0  0  0  0  0  0  0  0
   21.3495   72.3939   -5.9731 C   0  0  1  0  0  0  0  0  0  0  0  0
   19.6184   70.8132   -5.8502 C   0  0  2  0  0  0  0  0  0  0  0  0
   19.8380   72.5239   -8.8396 H   0  0  0  0  0  0  0  0  0  0  0  0
   17.6525   72.8177   -7.5444 H   0  0  0  0  0  0  0  0  0  0  0  0
   17.2129   69.3376   -5.9633 O   0  0  0  0  0  0  0  0  0  0  0  0
   17.0755   68.8622   -1.3809 O   0  0  0  0  0  0  0  0  0  0  0  0
   18.9325   70.2918   -4.7019 N   0  0  0  0  0  0  0  0  0  0  0  0
   17.1462   69.1031   -3.6808 N   0  0  0  0  0  0  0  0  0  0  0  0
   17.7305   69.5640   -4.8680 C   0  0  0  0  0  0  0  0  0  0  0  0
   19.4511   70.5013   -3.4299 C   0  0  0  0  0  0  0  0  0  0  0  0
   18.8829   70.0557   -2.3076 C   0  0  0  0  0  0  0  0  0  0  0  0
   17.6239   69.2869   -2.3933 C   0  0  0  0  0  0  0  0  0  0  0  0
   16.3075   68.5955   -3.7709 H   0  0  0  0  0  0  0  0  0  0  0  0
   23.9382   74.6119   -2.9555 O   0  0  0  0  0  0  0  0  0  0  0  0
   24.0421   74.6800   -1.3435 P   0  0  2  0  0  0  0  0  0  0  0  0
   22.9791   75.8366   -0.9530 O   0  0  0  0  0  0  0  0  0  0  0  0
   25.4312   74.9162   -0.8254 O   0  0  0  0  0  0  0  0  0  0  0  0
   23.3603   73.3106   -0.8313 O   0  0  0  0  0  0  0  0  0  0  0  0
   24.3896   72.6135    1.1845 O   0  0  0  0  0  0  0  0  0  0  0  0
   21.7189   69.5374    0.4969 O   0  0  0  0  0  0  0  0  0  0  0  0
   23.2705   70.6711   -1.7036 O   0  0  0  0  0  0  0  0  0  0  0  0
   21.1534   71.5327    2.5340 O   0  0  0  0  0  0  0  0  0  0  0  0
   22.1943   70.8830    0.4605 C   0  0  2  0  0  0  0  0  0  0  0  0
   23.5039   70.9420   -0.3263 C   0  0  2  0  0  0  0  0  0  0  0  0
   22.4183   71.3446    1.9022 C   0  0  1  0  0  0  0  0  0  0  0  0
   24.1604   72.3168   -0.1935 C   0  0  1  0  0  0  0  0  0  0  0  0
   23.1892   72.6606    1.9525 C   0  0  1  0  0  0  0  0  0  0  0  0
   21.5694   69.2225   -0.4085 H   0  0  0  0  0  0  0  0  0  0  0  0
   22.8537   69.8003   -1.7952 H   0  0  0  0  0  0  0  0  0  0  0  0
   20.6527   70.7024    2.5087 H   0  0  0  0  0  0  0  0  0  0  0  0
   23.4984   71.8508    4.1319 O   0  0  0  0  0  0  0  0  0  0  0  0
   24.1944   73.9797    3.7049 O   0  0  0  0  0  0  0  0  0  0  0  0
   23.6859   72.9320    3.3352 C   0  0  0  0  0  0  0  0  0  0  0  0
  1  4  1  0
  1 24  1  0
  1  2  1  6
  1  3  2  0
 25 28  1  0
 25 24  1  0
 25 26  1  1
 25 27  2  0
  6 11  1  0
  6 12  1  0
 29 36  1  0
 29 37  1  0
  9  7  1  6
  7 13  1  0
 10  8  1  6
  8 14  1  0
  4  5  1  0
 36 28  1  1
 33 30  1  1
 30 38  1  0
 34 31  1  6
 31 39  1  0
 35 32  1  6
 32 40  1  0
 41 43  1  0
 15 19  2  0
 42 43  2  0
 16 22  2  0
 12 17  1  1
 17 19  1  0
 17 20  1  0
 18 19  1  0
 18 22  1  0
 18 23  1  0
  9 10  1  0
  9 11  1  0
 10 12  1  0
 11  5  1  1
 33 34  1  0
 33 35  1  0
 34 36  1  0
 35 37  1  0
 37 43  1  1
 20 21  2  0
 21 22  1  0
M  CHG  3   2  -1  26  -1  41  -1
M  END
>  <COMPND>  (178) 
    udp_gluA.pdb 

>  <AUTHOR>  (178) 
    GENERATED BY OPEN BABEL 3.1.1

>  <MASTER>  (178) 
        0    0    0    0    0    0    0    0   56    0   56    0

>  <minimizedAffinity>  (178) 
-7.77224

>  <CNNscore>  (178) 
0.4101109207

>  <CNNaffinity>  (178) 
4.0289754868

>  <CNN_VS>  (178) 
1.6523268223

>  <CNNaffinity_variance>  (178) 
0.4715177119

$$$$
179
     RDKit          3D

 43 45  0  0  0  0  0  0  0  0999 V2000
   22.8047   73.2538   -4.9711 P   0  0  2  0  0  0  0  0  0  0  0  0
   23.0727   74.8473   -4.8833 O   0  0  0  0  0  0  0  0  0  0  0  0
   23.6627   72.5206   -5.9601 O   0  0  0  0  0  0  0  0  0  0  0  0
   21.2079   73.1408   -5.2066 O   0  0  0  0  0  0  0  0  0  0  0  0
   20.7414   72.5908   -6.4249 C   0  0  0  0  0  0  0  0  0  0  0  0
   19.8060   70.6698   -5.3236 O   0  0  0  0  0  0  0  0  0  0  0  0
   20.8996   69.0610   -7.6056 O   0  0  0  0  0  0  0  0  0  0  0  0
   18.2611   69.2965   -8.2531 O   0  0  0  0  0  0  0  0  0  0  0  0
   20.3434   70.3760   -7.6118 C   0  0  1  0  0  0  0  0  0  0  0  0
   18.8388   70.3094   -7.4563 C   0  0  2  0  0  0  0  0  0  0  0  0
   20.7663   71.0710   -6.3248 C   0  0  1  0  0  0  0  0  0  0  0  0
   18.6871   70.0411   -5.9687 C   0  0  2  0  0  0  0  0  0  0  0  0
   20.6430   68.5972   -8.4184 H   0  0  0  0  0  0  0  0  0  0  0  0
   18.3838   69.5135   -9.1910 H   0  0  0  0  0  0  0  0  0  0  0  0
   16.7268   68.5368   -4.6009 O   0  0  0  0  0  0  0  0  0  0  0  0
   14.0651   72.2450   -3.9618 O   0  0  0  0  0  0  0  0  0  0  0  0
   17.4722   70.5882   -5.4343 N   0  0  0  0  0  0  0  0  0  0  0  0
   15.4025   70.3849   -4.2848 N   0  0  0  0  0  0  0  0  0  0  0  0
   16.5535   69.7460   -4.7645 C   0  0  0  0  0  0  0  0  0  0  0  0
   17.2016   71.9440   -5.5744 C   0  0  0  0  0  0  0  0  0  0  0  0
   16.1002   72.5386   -5.1118 C   0  0  0  0  0  0  0  0  0  0  0  0
   15.0889   71.7295   -4.4004 C   0  0  0  0  0  0  0  0  0  0  0  0
   14.7472   69.8187   -3.8166 H   0  0  0  0  0  0  0  0  0  0  0  0
   22.9811   72.7712   -3.4386 O   0  0  0  0  0  0  0  0  0  0  0  0
   23.3725   71.3306   -2.8178 P   0  0  2  0  0  0  0  0  0  0  0  0
   24.9734   71.2528   -3.0445 O   0  0  0  0  0  0  0  0  0  0  0  0
   22.6082   70.1792   -3.4042 O   0  0  0  0  0  0  0  0  0  0  0  0
   23.1952   71.5098   -1.2244 O   0  0  0  0  0  0  0  0  0  0  0  0
   23.4243   73.4219    0.1543 O   0  0  0  0  0  0  0  0  0  0  0  0
   24.7352   70.4137    2.6643 O   0  0  0  0  0  0  0  0  0  0  0  0
   25.5290   70.4477   -0.1469 O   0  0  0  0  0  0  0  0  0  0  0  0
   22.0974   71.5779    3.0355 O   0  0  0  0  0  0  0  0  0  0  0  0
   23.9540   70.9892    1.6172 C   0  0  2  0  0  0  0  0  0  0  0  0
   24.8788   71.5219    0.5224 C   0  0  2  0  0  0  0  0  0  0  0  0
   23.1267   72.1289    2.2161 C   0  0  1  0  0  0  0  0  0  0  0  0
   24.0967   72.3460   -0.5013 C   0  0  1  0  0  0  0  0  0  0  0  0
   22.4800   72.9798    1.1269 C   0  0  1  0  0  0  0  0  0  0  0  0
   25.2695   69.6869    2.3073 H   0  0  0  0  0  0  0  0  0  0  0  0
   26.0270   69.9203    0.4968 H   0  0  0  0  0  0  0  0  0  0  0  0
   22.4957   71.0338    3.7328 H   0  0  0  0  0  0  0  0  0  0  0  0
   20.7121   74.0864    2.2000 O   0  0  0  0  0  0  0  0  0  0  0  0
   22.5645   75.3206    1.7059 O   0  0  0  0  0  0  0  0  0  0  0  0
   21.9581   74.2599    1.6938 C   0  0  0  0  0  0  0  0  0  0  0  0
  1  4  1  0
  1 24  1  0
  1  2  1  1
  1  3  2  0
 25 28  1  0
 25 24  1  0
 25 26  1  1
 25 27  2  0
  6 11  1  0
  6 12  1  0
 29 36  1  0
 29 37  1  0
  9  7  1  1
  7 13  1  0
 10  8  1  6
  8 14  1  0
  4  5  1  0
 36 28  1  1
 33 30  1  1
 30 38  1  0
 34 31  1  6
 31 39  1  0
 35 32  1  1
 32 40  1  0
 41 43  1  0
 15 19  2  0
 42 43  2  0
 16 22  2  0
 12 17  1  1
 17 19  1  0
 17 20  1  0
 18 19  1  0
 18 22  1  0
 18 23  1  0
  9 10  1  0
  9 11  1  0
 10 12  1  0
 11  5  1  6
 33 34  1  0
 33 35  1  0
 34 36  1  0
 35 37  1  0
 37 43  1  1
 20 21  2  0
 21 22  1  0
M  CHG  3   2  -1  26  -1  41  -1
M  END
>  <COMPND>  (179) 
    udp_gluA.pdb 

>  <AUTHOR>  (179) 
    GENERATED BY OPEN BABEL 3.1.1

>  <MASTER>  (179) 
        0    0    0    0    0    0    0    0   56    0   56    0

>  <minimizedAffinity>  (179) 
-7.57078

>  <CNNscore>  (179) 
0.4017015994

>  <CNNaffinity>  (179) 
4.4081950188

>  <CNN_VS>  (179) 
1.7707790136

>  <CNNaffinity_variance>  (179) 
0.1077851281

$$$$
180
     RDKit          3D

 43 45  0  0  0  0  0  0  0  0999 V2000
   17.8460   72.7235   -1.6860 P   0  0  2  0  0  0  0  0  0  0  0  0
   17.1698   73.9981   -2.4189 O   0  0  0  0  0  0  0  0  0  0  0  0
   17.7890   72.7510   -0.1867 O   0  0  0  0  0  0  0  0  0  0  0  0
   19.3276   72.6451   -2.3315 O   0  0  0  0  0  0  0  0  0  0  0  0
   20.2148   73.7282   -2.1214 C   0  0  0  0  0  0  0  0  0  0  0  0
   22.6140   73.5918   -2.0659 O   0  0  0  0  0  0  0  0  0  0  0  0
   22.4103   72.1985   -4.7133 O   0  0  0  0  0  0  0  0  0  0  0  0
   22.7954   70.1295   -2.9792 O   0  0  0  0  0  0  0  0  0  0  0  0
   21.5410   72.1230   -3.5832 C   0  0  1  0  0  0  0  0  0  0  0  0
   22.1801   71.3005   -2.4844 C   0  0  2  0  0  0  0  0  0  0  0  0
   21.4743   73.5054   -2.9486 C   0  0  1  0  0  0  0  0  0  0  0  0
   23.1791   72.2822   -1.8960 C   0  0  2  0  0  0  0  0  0  0  0  0
   22.4688   71.3267   -5.1355 H   0  0  0  0  0  0  0  0  0  0  0  0
   22.1179   69.5371   -3.3426 H   0  0  0  0  0  0  0  0  0  0  0  0
   25.2072   70.6027   -0.8751 O   0  0  0  0  0  0  0  0  0  0  0  0
   23.9905   71.4772    3.4837 O   0  0  0  0  0  0  0  0  0  0  0  0
   23.4146   72.0529   -0.4986 N   0  0  0  0  0  0  0  0  0  0  0  0
   24.5986   71.0391    1.2948 N   0  0  0  0  0  0  0  0  0  0  0  0
   24.4597   71.1905   -0.0911 C   0  0  0  0  0  0  0  0  0  0  0  0
   22.6170   72.6797    0.4511 C   0  0  0  0  0  0  0  0  0  0  0  0
   22.7617   72.5257    1.7687 C   0  0  0  0  0  0  0  0  0  0  0  0
   23.8298   71.6406    2.2780 C   0  0  0  0  0  0  0  0  0  0  0  0
   25.3182   70.4418    1.6026 H   0  0  0  0  0  0  0  0  0  0  0  0
   17.0865   71.4690   -2.3659 O   0  0  0  0  0  0  0  0  0  0  0  0
   17.5724   69.9496   -2.6286 P   0  0  2  0  0  0  0  0  0  0  0  0
   16.2373   69.0798   -2.3434 O   0  0  0  0  0  0  0  0  0  0  0  0
   18.7654   69.5355   -1.8167 O   0  0  0  0  0  0  0  0  0  0  0  0
   17.7847   69.8581   -4.2252 O   0  0  0  0  0  0  0  0  0  0  0  0
   18.7411   71.2031   -5.9238 O   0  0  0  0  0  0  0  0  0  0  0  0
   15.2241   69.9712   -7.7074 O   0  0  0  0  0  0  0  0  0  0  0  0
   15.2543   70.7922   -4.9039 O   0  0  0  0  0  0  0  0  0  0  0  0
   17.7544   68.7718   -8.4884 O   0  0  0  0  0  0  0  0  0  0  0  0
   16.3602   69.8574   -6.8505 C   0  0  2  0  0  0  0  0  0  0  0  0
   16.3330   70.9798   -5.8127 C   0  0  2  0  0  0  0  0  0  0  0  0
   17.6178   69.9631   -7.7160 C   0  0  1  0  0  0  0  0  0  0  0  0
   17.6437   71.0298   -5.0264 C   0  0  1  0  0  0  0  0  0  0  0  0
   18.8697   70.1361   -6.8608 C   0  0  1  0  0  0  0  0  0  0  0  0
   14.4128   69.9069   -7.1792 H   0  0  0  0  0  0  0  0  0  0  0  0
   14.4194   70.7593   -5.3961 H   0  0  0  0  0  0  0  0  0  0  0  0
   16.9639   68.6499   -9.0372 H   0  0  0  0  0  0  0  0  0  0  0  0
   21.1140   70.8147   -6.9241 O   0  0  0  0  0  0  0  0  0  0  0  0
   20.0136   70.6732   -8.9161 O   0  0  0  0  0  0  0  0  0  0  0  0
   20.0299   70.5640   -7.6992 C   0  0  0  0  0  0  0  0  0  0  0  0
  1  4  1  0
  1 24  1  0
  1  2  1  6
  1  3  2  0
 25 28  1  0
 25 24  1  0
 25 26  1  1
 25 27  2  0
  6 11  1  0
  6 12  1  0
 29 36  1  0
 29 37  1  0
  9  7  1  6
  7 13  1  0
 10  8  1  6
  8 14  1  0
  4  5  1  0
 36 28  1  6
 33 30  1  6
 30 38  1  0
 34 31  1  1
 31 39  1  0
 35 32  1  1
 32 40  1  0
 41 43  1  0
 15 19  2  0
 42 43  2  0
 16 22  2  0
 12 17  1  1
 17 19  1  0
 17 20  1  0
 18 19  1  0
 18 22  1  0
 18 23  1  0
  9 10  1  0
  9 11  1  0
 10 12  1  0
 11  5  1  1
 33 34  1  0
 33 35  1  0
 34 36  1  0
 35 37  1  0
 37 43  1  6
 20 21  2  0
 21 22  1  0
M  CHG  3   2  -1  26  -1  41  -1
M  END
>  <COMPND>  (180) 
    udp_gluA.pdb 

>  <AUTHOR>  (180) 
    GENERATED BY OPEN BABEL 3.1.1

>  <MASTER>  (180) 
        0    0    0    0    0    0    0    0   56    0   56    0

>  <minimizedAffinity>  (180) 
-6.56874

>  <CNNscore>  (180) 
0.4002721608

>  <CNNaffinity>  (180) 
4.3965516090

>  <CNN_VS>  (180) 
1.7598172426

>  <CNNaffinity_variance>  (180) 
0.1398630440

$$$$
181
     RDKit          3D

 43 45  0  0  0  0  0  0  0  0999 V2000
   24.2240   72.0614   -3.0857 P   0  0  2  0  0  0  0  0  0  0  0  0
   24.9543   73.2592   -3.8923 O   0  0  0  0  0  0  0  0  0  0  0  0
   25.0776   70.8525   -2.8369 O   0  0  0  0  0  0  0  0  0  0  0  0
   22.8645   71.8012   -3.9235 O   0  0  0  0  0  0  0  0  0  0  0  0
   22.3235   72.8670   -4.6824 C   0  0  0  0  0  0  0  0  0  0  0  0
   21.2047   71.0413   -5.7745 O   0  0  0  0  0  0  0  0  0  0  0  0
   20.7494   72.9305   -8.0582 O   0  0  0  0  0  0  0  0  0  0  0  0
   18.3358   72.9370   -6.7893 O   0  0  0  0  0  0  0  0  0  0  0  0
   20.7500   73.1929   -6.6548 C   0  0  1  0  0  0  0  0  0  0  0  0
   19.4857   72.6533   -6.0201 C   0  0  2  0  0  0  0  0  0  0  0  0
   21.8238   72.3236   -6.0148 C   0  0  1  0  0  0  0  0  0  0  0  0
   19.7833   71.1657   -5.9400 C   0  0  2  0  0  0  0  0  0  0  0  0
   20.0711   73.4746   -8.4889 H   0  0  0  0  0  0  0  0  0  0  0  0
   18.1890   73.8962   -6.8096 H   0  0  0  0  0  0  0  0  0  0  0  0
   17.2502   69.9246   -6.0805 O   0  0  0  0  0  0  0  0  0  0  0  0
   17.3624   68.7766   -1.6180 O   0  0  0  0  0  0  0  0  0  0  0  0
   19.1270   70.5347   -4.8300 N   0  0  0  0  0  0  0  0  0  0  0  0
   17.3080   69.3549   -3.8576 N   0  0  0  0  0  0  0  0  0  0  0  0
   17.8551   69.9404   -5.0068 C   0  0  0  0  0  0  0  0  0  0  0  0
   19.7428   70.5071   -3.5846 C   0  0  0  0  0  0  0  0  0  0  0  0
   19.2089   69.9452   -2.4984 C   0  0  0  0  0  0  0  0  0  0  0  0
   17.8817   69.3030   -2.5975 C   0  0  0  0  0  0  0  0  0  0  0  0
   16.4222   68.9366   -3.9555 H   0  0  0  0  0  0  0  0  0  0  0  0
   23.6915   72.7965   -1.7481 O   0  0  0  0  0  0  0  0  0  0  0  0
   22.4336   72.4698   -0.7866 P   0  0  2  0  0  0  0  0  0  0  0  0
   22.2864   70.8620   -0.9036 O   0  0  0  0  0  0  0  0  0  0  0  0
   21.1851   73.2314   -1.1259 O   0  0  0  0  0  0  0  0  0  0  0  0
   22.9853   72.7205    0.7085 O   0  0  0  0  0  0  0  0  0  0  0  0
   24.8356   71.6239    1.7000 O   0  0  0  0  0  0  0  0  0  0  0  0
   22.6026   72.6691    5.0150 O   0  0  0  0  0  0  0  0  0  0  0  0
   21.2981   71.6146    2.6232 O   0  0  0  0  0  0  0  0  0  0  0  0
   25.0027   74.1647    4.3417 O   0  0  0  0  0  0  0  0  0  0  0  0
   23.1162   72.8147    3.6910 C   0  0  2  0  0  0  0  0  0  0  0  0
   22.7033   71.6090    2.8464 C   0  0  2  0  0  0  0  0  0  0  0  0
   24.6412   72.9034    3.7824 C   0  0  1  0  0  0  0  0  0  0  0  0
   23.4221   71.6146    1.4966 C   0  0  1  0  0  0  0  0  0  0  0  0
   25.2901   72.7756    2.4072 C   0  0  1  0  0  0  0  0  0  0  0  0
   21.6347   72.6107    4.9819 H   0  0  0  0  0  0  0  0  0  0  0  0
   20.8357   71.6113    3.4756 H   0  0  0  0  0  0  0  0  0  0  0  0
   24.5960   74.2588    5.2172 H   0  0  0  0  0  0  0  0  0  0  0  0
   27.4135   73.6900    2.8031 O   0  0  0  0  0  0  0  0  0  0  0  0
   27.3033   71.4457    2.4161 O   0  0  0  0  0  0  0  0  0  0  0  0
   26.7589   72.5332    2.5342 C   0  0  0  0  0  0  0  0  0  0  0  0
  1  4  1  0
  1 24  1  0
  1  2  1  6
  1  3  2  0
 25 28  1  0
 25 24  1  0
 25 26  1  1
 25 27  2  0
  6 11  1  0
  6 12  1  0
 29 36  1  0
 29 37  1  0
  9  7  1  6
  7 13  1  0
 10  8  1  6
  8 14  1  0
  4  5  1  0
 36 28  1  1
 33 30  1  1
 30 38  1  0
 34 31  1  6
 31 39  1  0
 35 32  1  6
 32 40  1  0
 41 43  1  0
 15 19  2  0
 42 43  2  0
 16 22  2  0
 12 17  1  1
 17 19  1  0
 17 20  1  0
 18 19  1  0
 18 22  1  0
 18 23  1  0
  9 10  1  0
  9 11  1  0
 10 12  1  0
 11  5  1  1
 33 34  1  0
 33 35  1  0
 34 36  1  0
 35 37  1  0
 37 43  1  1
 20 21  2  0
 21 22  1  0
M  CHG  3   2  -1  26  -1  41  -1
M  END
>  <COMPND>  (181) 
    udp_gluA.pdb 

>  <AUTHOR>  (181) 
    GENERATED BY OPEN BABEL 3.1.1

>  <MASTER>  (181) 
        0    0    0    0    0    0    0    0   56    0   56    0

>  <minimizedAffinity>  (181) 
-7.81104

>  <CNNscore>  (181) 
0.6989687681

>  <CNNaffinity>  (181) 
4.3935174942

>  <CNN_VS>  (181) 
3.0709314346

>  <CNNaffinity_variance>  (181) 
0.1445035040

$$$$
182
     RDKit          3D

 43 45  0  0  0  0  0  0  0  0999 V2000
   23.7329   71.8026   -2.8662 P   0  0  2  0  0  0  0  0  0  0  0  0
   23.7476   73.3889   -2.5466 O   0  0  0  0  0  0  0  0  0  0  0  0
   25.0856   71.1831   -3.0616 O   0  0  0  0  0  0  0  0  0  0  0  0
   22.7112   71.6670   -4.1135 O   0  0  0  0  0  0  0  0  0  0  0  0
   22.4307   72.8197   -4.8861 C   0  0  0  0  0  0  0  0  0  0  0  0
   21.2516   71.1221   -6.1130 O   0  0  0  0  0  0  0  0  0  0  0  0
   20.9237   73.1744   -8.2745 O   0  0  0  0  0  0  0  0  0  0  0  0
   18.4897   73.2093   -7.0455 O   0  0  0  0  0  0  0  0  0  0  0  0
   20.9101   73.3448   -6.8570 C   0  0  1  0  0  0  0  0  0  0  0  0
   19.6114   72.8238   -6.2789 C   0  0  2  0  0  0  0  0  0  0  0  0
   21.9319   72.3875   -6.2590 C   0  0  1  0  0  0  0  0  0  0  0  0
   19.8405   71.3220   -6.2920 C   0  0  2  0  0  0  0  0  0  0  0  0
   20.2785   73.7759   -8.6791 H   0  0  0  0  0  0  0  0  0  0  0  0
   18.3864   74.1735   -7.0051 H   0  0  0  0  0  0  0  0  0  0  0  0
   17.6070   69.6382   -6.6833 O   0  0  0  0  0  0  0  0  0  0  0  0
   17.2176   68.8005   -2.1677 O   0  0  0  0  0  0  0  0  0  0  0  0
   19.1362   70.6511   -5.2361 N   0  0  0  0  0  0  0  0  0  0  0  0
   17.4146   69.2234   -4.4338 N   0  0  0  0  0  0  0  0  0  0  0  0
   18.0264   69.8276   -5.5399 C   0  0  0  0  0  0  0  0  0  0  0  0
   19.5468   70.8103   -3.9182 C   0  0  0  0  0  0  0  0  0  0  0  0
   18.9536   70.2277   -2.8743 C   0  0  0  0  0  0  0  0  0  0  0  0
   17.7860   69.3520   -3.1052 C   0  0  0  0  0  0  0  0  0  0  0  0
   16.6384   68.6470   -4.6201 H   0  0  0  0  0  0  0  0  0  0  0  0
   22.8843   71.1919   -1.6333 O   0  0  0  0  0  0  0  0  0  0  0  0
   23.3265   70.8123   -0.1253 P   0  0  2  0  0  0  0  0  0  0  0  0
   24.9237   70.5833   -0.2549 O   0  0  0  0  0  0  0  0  0  0  0  0
   22.5805   69.6487    0.4607 O   0  0  0  0  0  0  0  0  0  0  0  0
   23.1784   72.1885    0.7033 O   0  0  0  0  0  0  0  0  0  0  0  0
   24.2067   74.0828    1.6848 O   0  0  0  0  0  0  0  0  0  0  0  0
   23.3189   71.7925    5.0066 O   0  0  0  0  0  0  0  0  0  0  0  0
   24.3912   70.5459    2.5920 O   0  0  0  0  0  0  0  0  0  0  0  0
   21.7054   74.1251    4.3688 O   0  0  0  0  0  0  0  0  0  0  0  0
   23.1282   72.3039    3.6875 C   0  0  2  0  0  0  0  0  0  0  0  0
   24.3370   71.9492    2.8213 C   0  0  2  0  0  0  0  0  0  0  0  0
   22.9723   73.8231    3.7872 C   0  0  1  0  0  0  0  0  0  0  0  0
   24.2764   72.6719    1.4749 C   0  0  1  0  0  0  0  0  0  0  0  0
   23.0477   74.4822    2.4130 C   0  0  1  0  0  0  0  0  0  0  0  0
   23.4204   70.8284    4.9683 H   0  0  0  0  0  0  0  0  0  0  0  0
   24.4296   70.0810    3.4421 H   0  0  0  0  0  0  0  0  0  0  0  0
   21.6445   73.7112    5.2439 H   0  0  0  0  0  0  0  0  0  0  0  0
   24.3888   76.3542    1.9677 O   0  0  0  0  0  0  0  0  0  0  0  0
   22.4357   76.7165    3.0873 O   0  0  0  0  0  0  0  0  0  0  0  0
   23.2256   75.9599    2.5425 C   0  0  0  0  0  0  0  0  0  0  0  0
  1  4  1  0
  1 24  1  0
  1  2  1  1
  1  3  2  0
 25 28  1  0
 25 24  1  0
 25 26  1  6
 25 27  2  0
  6 11  1  0
  6 12  1  0
 29 36  1  0
 29 37  1  0
  9  7  1  6
  7 13  1  0
 10  8  1  6
  8 14  1  0
  4  5  1  0
 36 28  1  1
 33 30  1  1
 30 38  1  0
 34 31  1  6
 31 39  1  0
 35 32  1  6
 32 40  1  0
 41 43  1  0
 15 19  2  0
 42 43  2  0
 16 22  2  0
 12 17  1  1
 17 19  1  0
 17 20  1  0
 18 19  1  0
 18 22  1  0
 18 23  1  0
  9 10  1  0
  9 11  1  0
 10 12  1  0
 11  5  1  1
 33 34  1  0
 33 35  1  0
 34 36  1  0
 35 37  1  0
 37 43  1  1
 20 21  2  0
 21 22  1  0
M  CHG  3   2  -1  26  -1  41  -1
M  END
>  <COMPND>  (182) 
    udp_gluA.pdb 

>  <AUTHOR>  (182) 
    GENERATED BY OPEN BABEL 3.1.1

>  <MASTER>  (182) 
        0    0    0    0    0    0    0    0   56    0   56    0

>  <minimizedAffinity>  (182) 
-7.41199

>  <CNNscore>  (182) 
0.6875877976

>  <CNNaffinity>  (182) 
4.3988671303

>  <CNN_VS>  (182) 
3.0246074200

>  <CNNaffinity_variance>  (182) 
0.1818626821

$$$$
183
     RDKit          3D

 43 45  0  0  0  0  0  0  0  0999 V2000
   22.5386   74.0466   -2.7591 P   0  0  2  0  0  0  0  0  0  0  0  0
   21.5223   73.3867   -1.6864 O   0  0  0  0  0  0  0  0  0  0  0  0
   23.1407   75.3554   -2.3392 O   0  0  0  0  0  0  0  0  0  0  0  0
   21.6874   74.0740   -4.1348 O   0  0  0  0  0  0  0  0  0  0  0  0
   22.2092   74.7909   -5.2386 C   0  0  0  0  0  0  0  0  0  0  0  0
   22.4241   72.5389   -6.0509 O   0  0  0  0  0  0  0  0  0  0  0  0
   24.2431   73.6677   -8.1506 O   0  0  0  0  0  0  0  0  0  0  0  0
   21.8958   73.3528   -9.5023 O   0  0  0  0  0  0  0  0  0  0  0  0
   23.0718   74.2392   -7.5675 C   0  0  1  0  0  0  0  0  0  0  0  0
   21.8320   73.5575   -8.1064 C   0  0  2  0  0  0  0  0  0  0  0  0
   23.0386   73.8448   -6.0973 C   0  0  1  0  0  0  0  0  0  0  0  0
   21.8229   72.2552   -7.3242 C   0  0  2  0  0  0  0  0  0  0  0  0
   24.2861   73.9060   -9.0903 H   0  0  0  0  0  0  0  0  0  0  0  0
   21.8988   74.2112   -9.9552 H   0  0  0  0  0  0  0  0  0  0  0  0
   21.0962   69.5336   -7.5279 O   0  0  0  0  0  0  0  0  0  0  0  0
   16.6984   70.4414   -6.4889 O   0  0  0  0  0  0  0  0  0  0  0  0
   20.4950   71.7526   -7.1120 N   0  0  0  0  0  0  0  0  0  0  0  0
   18.9064   69.9885   -7.0112 N   0  0  0  0  0  0  0  0  0  0  0  0
   20.2359   70.3674   -7.2390 C   0  0  0  0  0  0  0  0  0  0  0  0
   19.4672   72.6271   -6.7807 C   0  0  0  0  0  0  0  0  0  0  0  0
   18.2049   72.2510   -6.5664 C   0  0  0  0  0  0  0  0  0  0  0  0
   17.8497   70.8212   -6.6801 C   0  0  0  0  0  0  0  0  0  0  0  0
   18.7012   69.0293   -7.0959 H   0  0  0  0  0  0  0  0  0  0  0  0
   23.6104   72.8647   -3.0183 O   0  0  0  0  0  0  0  0  0  0  0  0
   23.8623   71.4707   -2.2393 P   0  0  2  0  0  0  0  0  0  0  0  0
   25.3330   71.0239   -2.7469 O   0  0  0  0  0  0  0  0  0  0  0  0
   22.7928   70.4403   -2.4594 O   0  0  0  0  0  0  0  0  0  0  0  0
   24.0752   71.8959   -0.6978 O   0  0  0  0  0  0  0  0  0  0  0  0
   25.4630   71.2119    1.0954 O   0  0  0  0  0  0  0  0  0  0  0  0
   21.8092   71.6389    2.9757 O   0  0  0  0  0  0  0  0  0  0  0  0
   21.9818   70.3880    0.3413 O   0  0  0  0  0  0  0  0  0  0  0  0
   23.8775   73.6504    3.3319 O   0  0  0  0  0  0  0  0  0  0  0  0
   22.8217   71.9327    2.0130 C   0  0  2  0  0  0  0  0  0  0  0  0
   23.1002   70.6896    1.1677 C   0  0  2  0  0  0  0  0  0  0  0  0
   24.0835   72.3565    2.7681 C   0  0  1  0  0  0  0  0  0  0  0  0
   24.3317   70.8935    0.2841 C   0  0  1  0  0  0  0  0  0  0  0  0
   25.2941   72.4155    1.8410 C   0  0  1  0  0  0  0  0  0  0  0  0
   20.9976   71.3671    2.5189 H   0  0  0  0  0  0  0  0  0  0  0  0
   21.1967   70.2577    0.8954 H   0  0  0  0  0  0  0  0  0  0  0  0
   23.1096   73.6267    3.9240 H   0  0  0  0  0  0  0  0  0  0  0  0
   27.2378   71.3292    2.5781 O   0  0  0  0  0  0  0  0  0  0  0  0
   26.9434   73.4931    3.2338 O   0  0  0  0  0  0  0  0  0  0  0  0
   26.5611   72.5032    2.6280 C   0  0  0  0  0  0  0  0  0  0  0  0
  1  4  1  0
  1 24  1  0
  1  2  1  1
  1  3  2  0
 25 28  1  0
 25 24  1  0
 25 26  1  6
 25 27  2  0
  6 11  1  0
  6 12  1  0
 29 36  1  0
 29 37  1  0
  9  7  1  6
  7 13  1  0
 10  8  1  6
  8 14  1  0
  4  5  1  0
 36 28  1  6
 33 30  1  1
 30 38  1  0
 34 31  1  6
 31 39  1  0
 35 32  1  6
 32 40  1  0
 41 43  1  0
 15 19  2  0
 42 43  2  0
 16 22  2  0
 12 17  1  1
 17 19  1  0
 17 20  1  0
 18 19  1  0
 18 22  1  0
 18 23  1  0
  9 10  1  0
  9 11  1  0
 10 12  1  0
 11  5  1  1
 33 34  1  0
 33 35  1  0
 34 36  1  0
 35 37  1  0
 37 43  1  1
 20 21  2  0
 21 22  1  0
M  CHG  3   2  -1  26  -1  41  -1
M  END
>  <COMPND>  (183) 
    udp_gluA.pdb 

>  <AUTHOR>  (183) 
    GENERATED BY OPEN BABEL 3.1.1

>  <MASTER>  (183) 
        0    0    0    0    0    0    0    0   56    0   56    0

>  <minimizedAffinity>  (183) 
-7.43807

>  <CNNscore>  (183) 
0.5769568682

>  <CNNaffinity>  (183) 
4.3729515076

>  <CNN_VS>  (183) 
2.5230042934

>  <CNNaffinity_variance>  (183) 
0.0509985313

$$$$
184
     RDKit          3D

 43 45  0  0  0  0  0  0  0  0999 V2000
   23.6583   72.0469   -3.0995 P   0  0  2  0  0  0  0  0  0  0  0  0
   23.1853   70.5002   -3.1527 O   0  0  0  0  0  0  0  0  0  0  0  0
   24.9682   72.3323   -3.7736 O   0  0  0  0  0  0  0  0  0  0  0  0
   23.5802   72.4232   -1.5278 O   0  0  0  0  0  0  0  0  0  0  0  0
   24.6244   71.9889   -0.6759 C   0  0  0  0  0  0  0  0  0  0  0  0
   24.8563   70.8562    1.4314 O   0  0  0  0  0  0  0  0  0  0  0  0
   22.1419   69.6994    0.8969 O   0  0  0  0  0  0  0  0  0  0  0  0
   21.5967   71.7105    2.6560 O   0  0  0  0  0  0  0  0  0  0  0  0
   22.6490   70.9968    0.5835 C   0  0  1  0  0  0  0  0  0  0  0  0
   22.7398   71.8410    1.8370 C   0  0  2  0  0  0  0  0  0  0  0  0
   24.1131   70.8472    0.1933 C   0  0  1  0  0  0  0  0  0  0  0  0
   23.9958   71.2950    2.4946 C   0  0  2  0  0  0  0  0  0  0  0  0
   21.2075   69.7694    1.1493 H   0  0  0  0  0  0  0  0  0  0  0  0
   20.8243   72.0724    2.1931 H   0  0  0  0  0  0  0  0  0  0  0  0
   23.2212   72.1083    5.0860 O   0  0  0  0  0  0  0  0  0  0  0  0
   26.7062   75.1099    5.3838 O   0  0  0  0  0  0  0  0  0  0  0  0
   24.6828   72.2871    3.2721 N   0  0  0  0  0  0  0  0  0  0  0  0
   24.9570   73.6032    5.2314 N   0  0  0  0  0  0  0  0  0  0  0  0
   24.2114   72.6231    4.5632 C   0  0  0  0  0  0  0  0  0  0  0  0
   25.8103   72.9144    2.7560 C   0  0  0  0  0  0  0  0  0  0  0  0
   26.5106   73.8467    3.4049 C   0  0  0  0  0  0  0  0  0  0  0  0
   26.0843   74.2558    4.7593 C   0  0  0  0  0  0  0  0  0  0  0  0
   24.6469   73.8552    6.1312 H   0  0  0  0  0  0  0  0  0  0  0  0
   22.3932   72.8350   -3.7251 O   0  0  0  0  0  0  0  0  0  0  0  0
   20.8335   72.8458   -3.2999 P   0  0  2  0  0  0  0  0  0  0  0  0
   20.4695   74.4228   -3.2691 O   0  0  0  0  0  0  0  0  0  0  0  0
   20.5390   72.1180   -2.0203 O   0  0  0  0  0  0  0  0  0  0  0  0
   20.0535   72.2731   -4.5907 O   0  0  0  0  0  0  0  0  0  0  0  0
   19.0068   70.1583   -4.7932 O   0  0  0  0  0  0  0  0  0  0  0  0
   19.9842   70.9920   -8.7197 O   0  0  0  0  0  0  0  0  0  0  0  0
   21.8761   71.5655   -6.5689 O   0  0  0  0  0  0  0  0  0  0  0  0
   17.2351   71.2570   -7.8125 O   0  0  0  0  0  0  0  0  0  0  0  0
   19.6046   71.2983   -7.3781 C   0  0  2  0  0  0  0  0  0  0  0  0
   20.6843   70.8037   -6.4151 C   0  0  2  0  0  0  0  0  0  0  0  0
   18.2744   70.5980   -7.0914 C   0  0  1  0  0  0  0  0  0  0  0  0
   20.2117   70.9056   -4.9642 C   0  0  1  0  0  0  0  0  0  0  0  0
   17.9349   70.6343   -5.6041 C   0  0  1  0  0  0  0  0  0  0  0  0
   20.8272   71.4264   -8.9246 H   0  0  0  0  0  0  0  0  0  0  0  0
   22.1815   71.5056   -7.4873 H   0  0  0  0  0  0  0  0  0  0  0  0
   17.4391   71.2411   -8.7607 H   0  0  0  0  0  0  0  0  0  0  0  0
   15.6214   70.2573   -5.5198 O   0  0  0  0  0  0  0  0  0  0  0  0
   16.9791   68.5398   -4.8826 O   0  0  0  0  0  0  0  0  0  0  0  0
   16.8276   69.6819   -5.2894 C   0  0  0  0  0  0  0  0  0  0  0  0
  1  4  1  0
  1 24  1  0
  1  2  1  1
  1  3  2  0
 25 28  1  0
 25 24  1  0
 25 26  1  1
 25 27  2  0
  6 11  1  0
  6 12  1  0
 29 36  1  0
 29 37  1  0
  9  7  1  1
  7 13  1  0
 10  8  1  1
  8 14  1  0
  4  5  1  0
 36 28  1  6
 33 30  1  6
 30 38  1  0
 34 31  1  1
 31 39  1  0
 35 32  1  6
 32 40  1  0
 41 43  1  0
 15 19  2  0
 42 43  2  0
 16 22  2  0
 12 17  1  6
 17 19  1  0
 17 20  1  0
 18 19  1  0
 18 22  1  0
 18 23  1  0
  9 10  1  0
  9 11  1  0
 10 12  1  0
 11  5  1  6
 33 34  1  0
 33 35  1  0
 34 36  1  0
 35 37  1  0
 37 43  1  6
 20 21  2  0
 21 22  1  0
M  CHG  3   2  -1  26  -1  41  -1
M  END
>  <COMPND>  (184) 
    udp_gluA.pdb 

>  <AUTHOR>  (184) 
    GENERATED BY OPEN BABEL 3.1.1

>  <MASTER>  (184) 
        0    0    0    0    0    0    0    0   56    0   56    0

>  <minimizedAffinity>  (184) 
-7.71198

>  <CNNscore>  (184) 
0.5625000000

>  <CNNaffinity>  (184) 
4.3402442932

>  <CNN_VS>  (184) 
2.4413874149

>  <CNNaffinity_variance>  (184) 
0.0202449579

$$$$
185
     RDKit          3D

 43 45  0  0  0  0  0  0  0  0999 V2000
   22.4774   71.6356   -1.9335 P   0  0  2  0  0  0  0  0  0  0  0  0
   23.2055   71.1841   -3.3064 O   0  0  0  0  0  0  0  0  0  0  0  0
   22.0607   73.0763   -1.8815 O   0  0  0  0  0  0  0  0  0  0  0  0
   23.5014   71.1581   -0.7754 O   0  0  0  0  0  0  0  0  0  0  0  0
   23.6976   72.0026    0.3440 C   0  0  0  0  0  0  0  0  0  0  0  0
   23.7710   71.2290    2.6186 O   0  0  0  0  0  0  0  0  0  0  0  0
   20.8181   71.7449    2.6935 O   0  0  0  0  0  0  0  0  0  0  0  0
   21.8366   73.9258    3.9750 O   0  0  0  0  0  0  0  0  0  0  0  0
   21.8462   72.4750    2.0238 C   0  0  1  0  0  0  0  0  0  0  0  0
   22.6531   73.2788    3.0214 C   0  0  2  0  0  0  0  0  0  0  0  0
   22.8754   71.4758    1.5130 C   0  0  1  0  0  0  0  0  0  0  0  0
   23.5422   72.2133    3.6395 C   0  0  2  0  0  0  0  0  0  0  0  0
   20.1486   72.3622    3.0287 H   0  0  0  0  0  0  0  0  0  0  0  0
   21.2902   74.5946    3.5322 H   0  0  0  0  0  0  0  0  0  0  0  0
   24.0180   73.3154    6.1959 O   0  0  0  0  0  0  0  0  0  0  0  0
   28.4298   74.1976    5.1954 O   0  0  0  0  0  0  0  0  0  0  0  0
   24.8059   72.7383    4.0735 N   0  0  0  0  0  0  0  0  0  0  0  0
   26.2146   73.7547    5.6948 N   0  0  0  0  0  0  0  0  0  0  0  0
   24.9389   73.2696    5.3782 C   0  0  0  0  0  0  0  0  0  0  0  0
   25.8963   72.7222    3.2123 C   0  0  0  0  0  0  0  0  0  0  0  0
   27.1061   73.1881    3.5284 C   0  0  0  0  0  0  0  0  0  0  0  0
   27.3294   73.7609    4.8721 C   0  0  0  0  0  0  0  0  0  0  0  0
   26.3311   74.1313    6.5970 H   0  0  0  0  0  0  0  0  0  0  0  0
   21.2619   70.5781   -1.8025 O   0  0  0  0  0  0  0  0  0  0  0  0
   19.6603   70.7979   -1.7911 P   0  0  2  0  0  0  0  0  0  0  0  0
   19.4559   71.9725   -0.6962 O   0  0  0  0  0  0  0  0  0  0  0  0
   18.8697   69.5516   -1.5159 O   0  0  0  0  0  0  0  0  0  0  0  0
   19.3334   71.4992   -3.2066 O   0  0  0  0  0  0  0  0  0  0  0  0
   18.5194   70.0725   -4.9127 O   0  0  0  0  0  0  0  0  0  0  0  0
   19.3739   73.5144   -7.0319 O   0  0  0  0  0  0  0  0  0  0  0  0
   21.2079   72.5493   -4.9728 O   0  0  0  0  0  0  0  0  0  0  0  0
   16.6186   72.8359   -6.4003 O   0  0  0  0  0  0  0  0  0  0  0  0
   18.9728   72.7497   -5.8950 C   0  0  2  0  0  0  0  0  0  0  0  0
   20.1062   71.8089   -5.4854 C   0  0  2  0  0  0  0  0  0  0  0  0
   17.7279   71.9474   -6.2801 C   0  0  1  0  0  0  0  0  0  0  0  0
   19.6354   70.8159   -4.4217 C   0  0  1  0  0  0  0  0  0  0  0  0
   17.3968   70.8934   -5.2274 C   0  0  1  0  0  0  0  0  0  0  0  0
   20.1637   74.0327   -6.8108 H   0  0  0  0  0  0  0  0  0  0  0  0
   21.5115   73.1816   -5.6425 H   0  0  0  0  0  0  0  0  0  0  0  0
   16.8165   73.5119   -7.0672 H   0  0  0  0  0  0  0  0  0  0  0  0
   15.9535   69.1043   -4.7611 O   0  0  0  0  0  0  0  0  0  0  0  0
   16.0326   69.8421   -6.9171 O   0  0  0  0  0  0  0  0  0  0  0  0
   16.4008   69.9122   -5.7542 C   0  0  0  0  0  0  0  0  0  0  0  0
  1  4  1  0
  1 24  1  0
  1  2  1  6
  1  3  2  0
 25 28  1  0
 25 24  1  0
 25 26  1  1
 25 27  2  0
  6 11  1  0
  6 12  1  0
 29 36  1  0
 29 37  1  0
  9  7  1  1
  7 13  1  0
 10  8  1  1
  8 14  1  0
  4  5  1  0
 36 28  1  1
 33 30  1  6
 30 38  1  0
 34 31  1  1
 31 39  1  0
 35 32  1  1
 32 40  1  0
 41 43  1  0
 15 19  2  0
 42 43  2  0
 16 22  2  0
 12 17  1  6
 17 19  1  0
 17 20  1  0
 18 19  1  0
 18 22  1  0
 18 23  1  0
  9 10  1  0
  9 11  1  0
 10 12  1  0
 11  5  1  6
 33 34  1  0
 33 35  1  0
 34 36  1  0
 35 37  1  0
 37 43  1  6
 20 21  2  0
 21 22  1  0
M  CHG  3   2  -1  26  -1  41  -1
M  END
>  <COMPND>  (185) 
    udp_gluA.pdb 

>  <AUTHOR>  (185) 
    GENERATED BY OPEN BABEL 3.1.1

>  <MASTER>  (185) 
        0    0    0    0    0    0    0    0   56    0   56    0

>  <minimizedAffinity>  (185) 
-6.40901

>  <CNNscore>  (185) 
0.5607395172

>  <CNNaffinity>  (185) 
4.2790589333

>  <CNN_VS>  (185) 
2.3994374275

>  <CNNaffinity_variance>  (185) 
0.0473112240

$$$$
186
     RDKit          3D

 43 45  0  0  0  0  0  0  0  0999 V2000
   20.8757   73.3352   -3.8680 P   0  0  2  0  0  0  0  0  0  0  0  0
   21.3357   71.7869   -3.9685 O   0  0  0  0  0  0  0  0  0  0  0  0
   19.8825   73.6320   -2.7830 O   0  0  0  0  0  0  0  0  0  0  0  0
   20.4025   73.6983   -5.3721 O   0  0  0  0  0  0  0  0  0  0  0  0
   19.2232   74.4628   -5.5439 C   0  0  0  0  0  0  0  0  0  0  0  0
   18.3784   72.4150   -6.4770 O   0  0  0  0  0  0  0  0  0  0  0  0
   16.4025   74.1204   -7.9532 O   0  0  0  0  0  0  0  0  0  0  0  0
   14.9207   73.1508   -5.8795 O   0  0  0  0  0  0  0  0  0  0  0  0
   16.9333   74.2849   -6.6380 C   0  0  1  0  0  0  0  0  0  0  0  0
   16.3150   73.2762   -5.6933 C   0  0  2  0  0  0  0  0  0  0  0  0
   18.3914   73.8471   -6.6617 C   0  0  1  0  0  0  0  0  0  0  0  0
   17.0691   72.0066   -6.0499 C   0  0  2  0  0  0  0  0  0  0  0  0
   15.4715   74.3938   -7.9630 H   0  0  0  0  0  0  0  0  0  0  0  0
   14.4860   73.9846   -5.6389 H   0  0  0  0  0  0  0  0  0  0  0  0
   17.3372   69.2037   -6.2698 O   0  0  0  0  0  0  0  0  0  0  0  0
   17.5623   68.6831   -1.6957 O   0  0  0  0  0  0  0  0  0  0  0  0
   17.1996   71.1146   -4.9326 N   0  0  0  0  0  0  0  0  0  0  0  0
   17.4480   68.9470   -3.9914 N   0  0  0  0  0  0  0  0  0  0  0  0
   17.3283   69.7227   -5.1520 C   0  0  0  0  0  0  0  0  0  0  0  0
   17.2008   71.6199   -3.6382 C   0  0  0  0  0  0  0  0  0  0  0  0
   17.3159   70.8680   -2.5417 C   0  0  0  0  0  0  0  0  0  0  0  0
   17.4539   69.4036   -2.6833 C   0  0  0  0  0  0  0  0  0  0  0  0
   17.5369   67.9748   -4.1187 H   0  0  0  0  0  0  0  0  0  0  0  0
   22.2804   74.1228   -3.7289 O   0  0  0  0  0  0  0  0  0  0  0  0
   23.8059   73.5914   -3.7911 P   0  0  2  0  0  0  0  0  0  0  0  0
   24.6765   74.9478   -3.6412 O   0  0  0  0  0  0  0  0  0  0  0  0
   24.1269   72.7826   -5.0145 O   0  0  0  0  0  0  0  0  0  0  0  0
   24.0246   72.8110   -2.3962 O   0  0  0  0  0  0  0  0  0  0  0  0
   22.3285   72.2523   -0.8405 O   0  0  0  0  0  0  0  0  0  0  0  0
   25.6666   72.4395    1.5864 O   0  0  0  0  0  0  0  0  0  0  0  0
   25.2360   74.4420   -0.4966 O   0  0  0  0  0  0  0  0  0  0  0  0
   24.5591   69.8619    0.8245 O   0  0  0  0  0  0  0  0  0  0  0  0
   24.9458   72.1977    0.3781 C   0  0  2  0  0  0  0  0  0  0  0  0
   24.2658   73.4885   -0.0792 C   0  0  2  0  0  0  0  0  0  0  0  0
   23.9003   71.1162    0.6594 C   0  0  1  0  0  0  0  0  0  0  0  0
   23.3023   73.2192   -1.2359 C   0  0  1  0  0  0  0  0  0  0  0  0
   22.9014   70.9952   -0.4877 C   0  0  1  0  0  0  0  0  0  0  0  0
   26.3369   73.1237    1.4318 H   0  0  0  0  0  0  0  0  0  0  0  0
   25.8509   74.6174    0.2324 H   0  0  0  0  0  0  0  0  0  0  0  0
   25.1979   69.9254    1.5517 H   0  0  0  0  0  0  0  0  0  0  0  0
   20.6065   70.5869   -0.7491 O   0  0  0  0  0  0  0  0  0  0  0  0
   21.7284   69.2928    0.7561 O   0  0  0  0  0  0  0  0  0  0  0  0
   21.7132   70.1894   -0.0737 C   0  0  0  0  0  0  0  0  0  0  0  0
  1  4  1  0
  1 24  1  0
  1  2  1  6
  1  3  2  0
 25 28  1  0
 25 24  1  0
 25 26  1  1
 25 27  2  0
  6 11  1  0
  6 12  1  0
 29 36  1  0
 29 37  1  0
  9  7  1  6
  7 13  1  0
 10  8  1  6
  8 14  1  0
  4  5  1  0
 36 28  1  6
 33 30  1  1
 30 38  1  0
 34 31  1  6
 31 39  1  0
 35 32  1  6
 32 40  1  0
 41 43  1  0
 15 19  2  0
 42 43  2  0
 16 22  2  0
 12 17  1  1
 17 19  1  0
 17 20  1  0
 18 19  1  0
 18 22  1  0
 18 23  1  0
  9 10  1  0
  9 11  1  0
 10 12  1  0
 11  5  1  1
 33 34  1  0
 33 35  1  0
 34 36  1  0
 35 37  1  0
 37 43  1  1
 20 21  2  0
 21 22  1  0
M  CHG  3   2  -1  26  -1  41  -1
M  END
>  <COMPND>  (186) 
    udp_gluA.pdb 

>  <AUTHOR>  (186) 
    GENERATED BY OPEN BABEL 3.1.1

>  <MASTER>  (186) 
        0    0    0    0    0    0    0    0   56    0   56    0

>  <minimizedAffinity>  (186) 
-6.57971

>  <CNNscore>  (186) 
0.5460624099

>  <CNNaffinity>  (186) 
4.1356000900

>  <CNN_VS>  (186) 
2.2582957745

>  <CNNaffinity_variance>  (186) 
0.2615852952

$$$$
187
     RDKit          3D

 43 45  0  0  0  0  0  0  0  0999 V2000
   24.2517   72.3350   -2.8317 P   0  0  2  0  0  0  0  0  0  0  0  0
   25.0163   70.9091   -2.8017 O   0  0  0  0  0  0  0  0  0  0  0  0
   24.9656   73.4210   -3.5819 O   0  0  0  0  0  0  0  0  0  0  0  0
   23.9432   72.6433   -1.2736 O   0  0  0  0  0  0  0  0  0  0  0  0
   24.8720   72.2023   -0.3003 C   0  0  0  0  0  0  0  0  0  0  0  0
   24.9266   71.0234    1.7937 O   0  0  0  0  0  0  0  0  0  0  0  0
   22.1481   70.1066    1.1372 O   0  0  0  0  0  0  0  0  0  0  0  0
   21.7044   72.1304    2.9101 O   0  0  0  0  0  0  0  0  0  0  0  0
   22.7734   71.3613    0.8661 C   0  0  1  0  0  0  0  0  0  0  0  0
   22.8854   72.1764    2.1371 C   0  0  2  0  0  0  0  0  0  0  0  0
   24.2340   71.0950    0.5286 C   0  0  1  0  0  0  0  0  0  0  0  0
   24.0649   71.5173    2.8315 C   0  0  2  0  0  0  0  0  0  0  0  0
   21.2137   70.2511    1.3555 H   0  0  0  0  0  0  0  0  0  0  0  0
   20.9834   72.5627    2.4251 H   0  0  0  0  0  0  0  0  0  0  0  0
   23.2207   72.4171    5.3720 O   0  0  0  0  0  0  0  0  0  0  0  0
   26.9716   75.0453    5.8896 O   0  0  0  0  0  0  0  0  0  0  0  0
   24.8015   72.4368    3.6518 N   0  0  0  0  0  0  0  0  0  0  0  0
   25.0892   73.7261    5.6269 N   0  0  0  0  0  0  0  0  0  0  0  0
   24.2890   72.8250    4.9122 C   0  0  0  0  0  0  0  0  0  0  0  0
   26.0171   72.9424    3.2072 C   0  0  0  0  0  0  0  0  0  0  0  0
   26.7686   73.8005    3.8999 C   0  0  0  0  0  0  0  0  0  0  0  0
   26.3045   74.2571    5.2263 C   0  0  0  0  0  0  0  0  0  0  0  0
   24.7521   74.0125    6.5065 H   0  0  0  0  0  0  0  0  0  0  0  0
   22.7959   71.9539   -3.4219 O   0  0  0  0  0  0  0  0  0  0  0  0
   21.5756   71.1130   -2.7759 P   0  0  2  0  0  0  0  0  0  0  0  0
   20.7156   72.2448   -2.0015 O   0  0  0  0  0  0  0  0  0  0  0  0
   22.0089   69.9654   -1.9102 O   0  0  0  0  0  0  0  0  0  0  0  0
   20.6569   70.6931   -4.0337 O   0  0  0  0  0  0  0  0  0  0  0  0
   20.1781   71.8191   -6.0616 O   0  0  0  0  0  0  0  0  0  0  0  0
   16.6148   69.8625   -5.3249 O   0  0  0  0  0  0  0  0  0  0  0  0
   18.0629   71.1707   -3.1509 O   0  0  0  0  0  0  0  0  0  0  0  0
   18.4340   68.8640   -7.3608 O   0  0  0  0  0  0  0  0  0  0  0  0
   18.0304   70.0454   -5.3001 C   0  0  2  0  0  0  0  0  0  0  0  0
   18.3678   71.3238   -4.5323 C   0  0  2  0  0  0  0  0  0  0  0  0
   18.5194   70.1485   -6.7465 C   0  0  1  0  0  0  0  0  0  0  0  0
   19.8489   71.6755   -4.6794 C   0  0  1  0  0  0  0  0  0  0  0  0
   19.9674   70.6254   -6.8124 C   0  0  1  0  0  0  0  0  0  0  0  0
   16.2814   69.7944   -4.4163 H   0  0  0  0  0  0  0  0  0  0  0  0
   17.1247   70.9471   -3.0502 H   0  0  0  0  0  0  0  0  0  0  0  0
   17.5173   68.5490   -7.3253 H   0  0  0  0  0  0  0  0  0  0  0  0
   21.2173   72.0593   -8.1847 O   0  0  0  0  0  0  0  0  0  0  0  0
   19.8888   70.5235   -9.2217 O   0  0  0  0  0  0  0  0  0  0  0  0
   20.3280   71.0357   -8.2031 C   0  0  0  0  0  0  0  0  0  0  0  0
  1  4  1  0
  1 24  1  0
  1  2  1  1
  1  3  2  0
 25 28  1  0
 25 24  1  0
 25 26  1  1
 25 27  2  0
  6 11  1  0
  6 12  1  0
 29 36  1  0
 29 37  1  0
  9  7  1  1
  7 13  1  0
 10  8  1  1
  8 14  1  0
  4  5  1  0
 36 28  1  6
 33 30  1  6
 30 38  1  0
 34 31  1  1
 31 39  1  0
 35 32  1  1
 32 40  1  0
 41 43  1  0
 15 19  2  0
 42 43  2  0
 16 22  2  0
 12 17  1  6
 17 19  1  0
 17 20  1  0
 18 19  1  0
 18 22  1  0
 18 23  1  0
  9 10  1  0
  9 11  1  0
 10 12  1  0
 11  5  1  6
 33 34  1  0
 33 35  1  0
 34 36  1  0
 35 37  1  0
 37 43  1  6
 20 21  2  0
 21 22  1  0
M  CHG  3   2  -1  26  -1  41  -1
M  END
>  <COMPND>  (187) 
    udp_gluA.pdb 

>  <AUTHOR>  (187) 
    GENERATED BY OPEN BABEL 3.1.1

>  <MASTER>  (187) 
        0    0    0    0    0    0    0    0   56    0   56    0

>  <minimizedAffinity>  (187) 
-7.18264

>  <CNNscore>  (187) 
0.5174204111

>  <CNNaffinity>  (187) 
4.2351446152

>  <CNN_VS>  (187) 
2.1913502216

>  <CNNaffinity_variance>  (187) 
0.0864976719

$$$$
188
     RDKit          3D

 43 45  0  0  0  0  0  0  0  0999 V2000
   22.4503   73.4699   -5.9174 P   0  0  2  0  0  0  0  0  0  0  0  0
   22.1877   74.7268   -6.9024 O   0  0  0  0  0  0  0  0  0  0  0  0
   23.3352   72.3971   -6.4813 O   0  0  0  0  0  0  0  0  0  0  0  0
   20.9643   72.9990   -5.4838 O   0  0  0  0  0  0  0  0  0  0  0  0
   20.0387   72.6607   -6.5003 C   0  0  0  0  0  0  0  0  0  0  0  0
   19.5526   70.4266   -5.7587 O   0  0  0  0  0  0  0  0  0  0  0  0
   20.0639   69.5755   -8.5882 O   0  0  0  0  0  0  0  0  0  0  0  0
   17.3403   69.6262   -8.4642 O   0  0  0  0  0  0  0  0  0  0  0  0
   19.4544   70.7709   -8.1002 C   0  0  1  0  0  0  0  0  0  0  0  0
   18.0572   70.4785   -7.5957 C   0  0  2  0  0  0  0  0  0  0  0  0
   20.1757   71.1783   -6.8227 C   0  0  1  0  0  0  0  0  0  0  0  0
   18.3365   69.8381   -6.2468 C   0  0  2  0  0  0  0  0  0  0  0  0
   19.6198   69.2956   -9.4043 H   0  0  0  0  0  0  0  0  0  0  0  0
   17.1874   70.0795   -9.3086 H   0  0  0  0  0  0  0  0  0  0  0  0
   16.6285   67.8398   -5.2143 O   0  0  0  0  0  0  0  0  0  0  0  0
   14.3447   70.8805   -2.6100 O   0  0  0  0  0  0  0  0  0  0  0  0
   17.2871   70.0799   -5.2975 N   0  0  0  0  0  0  0  0  0  0  0  0
   15.4920   69.3563   -3.9190 N   0  0  0  0  0  0  0  0  0  0  0  0
   16.4857   69.0061   -4.8425 C   0  0  0  0  0  0  0  0  0  0  0  0
   17.0613   71.3674   -4.8261 C   0  0  0  0  0  0  0  0  0  0  0  0
   16.1103   71.6857   -3.9457 C   0  0  0  0  0  0  0  0  0  0  0  0
   15.2288   70.6222   -3.4211 C   0  0  0  0  0  0  0  0  0  0  0  0
   14.9200   68.6259   -3.5893 H   0  0  0  0  0  0  0  0  0  0  0  0
   23.0150   74.1722   -4.5755 O   0  0  0  0  0  0  0  0  0  0  0  0
   23.9032   73.5806   -3.3611 P   0  0  2  0  0  0  0  0  0  0  0  0
   24.0833   74.8552   -2.3796 O   0  0  0  0  0  0  0  0  0  0  0  0
   25.1932   72.9462   -3.7939 O   0  0  0  0  0  0  0  0  0  0  0  0
   22.9048   72.5932   -2.5670 O   0  0  0  0  0  0  0  0  0  0  0  0
   24.0462   70.7836   -1.5511 O   0  0  0  0  0  0  0  0  0  0  0  0
   20.0977   69.7703   -0.8798 O   0  0  0  0  0  0  0  0  0  0  0  0
   20.9306   70.8508   -3.4630 O   0  0  0  0  0  0  0  0  0  0  0  0
   21.7205   70.8311    1.2863 O   0  0  0  0  0  0  0  0  0  0  0  0
   21.2035   70.6550   -1.0603 C   0  0  2  0  0  0  0  0  0  0  0  0
   21.8226   70.4256   -2.4392 C   0  0  2  0  0  0  0  0  0  0  0  0
   22.2277   70.3621    0.0384 C   0  0  1  0  0  0  0  0  0  0  0  0
   23.1416   71.1866   -2.5802 C   0  0  1  0  0  0  0  0  0  0  0  0
   23.5573   71.0571   -0.2399 C   0  0  1  0  0  0  0  0  0  0  0  0
   19.4337   69.9380   -1.5670 H   0  0  0  0  0  0  0  0  0  0  0  0
   20.0914   70.3721   -3.3795 H   0  0  0  0  0  0  0  0  0  0  0  0
   20.8741   70.3965    1.4753 H   0  0  0  0  0  0  0  0  0  0  0  0
   25.7568   70.2585   -0.0780 O   0  0  0  0  0  0  0  0  0  0  0  0
   24.5292   70.3215    1.8424 O   0  0  0  0  0  0  0  0  0  0  0  0
   24.6349   70.5125    0.6402 C   0  0  0  0  0  0  0  0  0  0  0  0
  1  4  1  0
  1 24  1  0
  1  2  1  6
  1  3  2  0
 25 28  1  0
 25 24  1  0
 25 26  1  1
 25 27  2  0
  6 11  1  0
  6 12  1  0
 29 36  1  0
 29 37  1  0
  9  7  1  1
  7 13  1  0
 10  8  1  6
  8 14  1  0
  4  5  1  0
 36 28  1  1
 33 30  1  1
 30 38  1  0
 34 31  1  6
 31 39  1  0
 35 32  1  1
 32 40  1  0
 41 43  1  0
 15 19  2  0
 42 43  2  0
 16 22  2  0
 12 17  1  1
 17 19  1  0
 17 20  1  0
 18 19  1  0
 18 22  1  0
 18 23  1  0
  9 10  1  0
  9 11  1  0
 10 12  1  0
 11  5  1  1
 33 34  1  0
 33 35  1  0
 34 36  1  0
 35 37  1  0
 37 43  1  1
 20 21  2  0
 21 22  1  0
M  CHG  3   2  -1  26  -1  41  -1
M  END
>  <COMPND>  (188) 
    udp_gluA.pdb 

>  <AUTHOR>  (188) 
    GENERATED BY OPEN BABEL 3.1.1

>  <MASTER>  (188) 
        0    0    0    0    0    0    0    0   56    0   56    0

>  <minimizedAffinity>  (188) 
-7.95000

>  <CNNscore>  (188) 
0.4835907221

>  <CNNaffinity>  (188) 
4.3717966080

>  <CNN_VS>  (188) 
2.1141602993

>  <CNNaffinity_variance>  (188) 
0.1894032210

$$$$
189
     RDKit          3D

 43 45  0  0  0  0  0  0  0  0999 V2000
   18.2712   70.0704   -2.4029 P   0  0  2  0  0  0  0  0  0  0  0  0
   17.6977   68.6181   -1.9775 O   0  0  0  0  0  0  0  0  0  0  0  0
   17.4686   71.2381   -1.9090 O   0  0  0  0  0  0  0  0  0  0  0  0
   18.4435   69.9649   -4.0083 O   0  0  0  0  0  0  0  0  0  0  0  0
   17.5388   69.1525   -4.7335 C   0  0  0  0  0  0  0  0  0  0  0  0
   17.3531   71.3206   -5.7545 O   0  0  0  0  0  0  0  0  0  0  0  0
   15.4112   70.0534   -7.6558 O   0  0  0  0  0  0  0  0  0  0  0  0
   17.7044   70.1575   -9.1277 O   0  0  0  0  0  0  0  0  0  0  0  0
   16.5902   69.5030   -7.0680 C   0  0  1  0  0  0  0  0  0  0  0  0
   17.8241   70.0877   -7.7222 C   0  0  2  0  0  0  0  0  0  0  0  0
   16.6998   70.0374   -5.6464 C   0  0  1  0  0  0  0  0  0  0  0  0
   17.9053   71.4590   -7.0734 C   0  0  2  0  0  0  0  0  0  0  0  0
   15.3198   69.7263   -8.5648 H   0  0  0  0  0  0  0  0  0  0  0  0
   17.6566   69.2597   -9.4931 H   0  0  0  0  0  0  0  0  0  0  0  0
   18.6119   74.1342   -6.5075 O   0  0  0  0  0  0  0  0  0  0  0  0
   23.1164   73.1746   -6.6879 O   0  0  0  0  0  0  0  0  0  0  0  0
   19.2552   71.9356   -6.9667 N   0  0  0  0  0  0  0  0  0  0  0  0
   20.8547   73.6540   -6.5989 N   0  0  0  0  0  0  0  0  0  0  0  0
   19.5017   73.2990   -6.6791 C   0  0  0  0  0  0  0  0  0  0  0  0
   20.3170   71.0571   -7.1444 C   0  0  0  0  0  0  0  0  0  0  0  0
   21.6015   71.4102   -7.0649 C   0  0  0  0  0  0  0  0  0  0  0  0
   21.9453   72.8165   -6.7686 C   0  0  0  0  0  0  0  0  0  0  0  0
   21.0513   74.5983   -6.4017 H   0  0  0  0  0  0  0  0  0  0  0  0
   19.7968   70.0284   -1.8702 O   0  0  0  0  0  0  0  0  0  0  0  0
   20.5647   70.9385   -0.7768 P   0  0  2  0  0  0  0  0  0  0  0  0
   21.1781   69.8463    0.2485 O   0  0  0  0  0  0  0  0  0  0  0  0
   19.7008   71.9801   -0.1266 O   0  0  0  0  0  0  0  0  0  0  0  0
   21.8464   71.5260   -1.5607 O   0  0  0  0  0  0  0  0  0  0  0  0
   21.1015   72.8087   -3.4070 O   0  0  0  0  0  0  0  0  0  0  0  0
   25.2053   73.0428   -3.8217 O   0  0  0  0  0  0  0  0  0  0  0  0
   23.9318   70.5150   -3.0986 O   0  0  0  0  0  0  0  0  0  0  0  0
   23.7105   75.3150   -2.7954 O   0  0  0  0  0  0  0  0  0  0  0  0
   23.9710   72.9408   -3.1118 C   0  0  2  0  0  0  0  0  0  0  0  0
   23.2349   71.6726   -3.5448 C   0  0  2  0  0  0  0  0  0  0  0  0
   23.1340   74.1797   -3.4381 C   0  0  1  0  0  0  0  0  0  0  0  0
   21.8133   71.6460   -2.9817 C   0  0  1  0  0  0  0  0  0  0  0  0
   21.6953   74.0233   -2.9540 C   0  0  1  0  0  0  0  0  0  0  0  0
   25.7541   72.2661   -3.6297 H   0  0  0  0  0  0  0  0  0  0  0  0
   24.8348   70.5255   -3.4520 H   0  0  0  0  0  0  0  0  0  0  0  0
   24.6264   75.4256   -3.0947 H   0  0  0  0  0  0  0  0  0  0  0  0
   21.4683   75.7337   -4.5430 O   0  0  0  0  0  0  0  0  0  0  0  0
   19.6669   75.3040   -3.2128 O   0  0  0  0  0  0  0  0  0  0  0  0
   20.8164   75.0712   -3.5556 C   0  0  0  0  0  0  0  0  0  0  0  0
  1  4  1  0
  1 24  1  0
  1  2  1  1
  1  3  2  0
 25 28  1  0
 25 24  1  0
 25 26  1  1
 25 27  2  0
  6 11  1  0
  6 12  1  0
 29 36  1  0
 29 37  1  0
  9  7  1  6
  7 13  1  0
 10  8  1  6
  8 14  1  0
  4  5  1  0
 36 28  1  1
 33 30  1  6
 30 38  1  0
 34 31  1  1
 31 39  1  0
 35 32  1  1
 32 40  1  0
 41 43  1  0
 15 19  2  0
 42 43  2  0
 16 22  2  0
 12 17  1  1
 17 19  1  0
 17 20  1  0
 18 19  1  0
 18 22  1  0
 18 23  1  0
  9 10  1  0
  9 11  1  0
 10 12  1  0
 11  5  1  1
 33 34  1  0
 33 35  1  0
 34 36  1  0
 35 37  1  0
 37 43  1  6
 20 21  2  0
 21 22  1  0
M  CHG  3   2  -1  26  -1  41  -1
M  END
>  <COMPND>  (189) 
    udp_gluA.pdb 

>  <AUTHOR>  (189) 
    GENERATED BY OPEN BABEL 3.1.1

>  <MASTER>  (189) 
        0    0    0    0    0    0    0    0   56    0   56    0

>  <minimizedAffinity>  (189) 
-7.19950

>  <CNNscore>  (189) 
0.4819352925

>  <CNNaffinity>  (189) 
4.1469850540

>  <CNN_VS>  (189) 
1.9985784292

>  <CNNaffinity_variance>  (189) 
0.9872028232

$$$$
190
     RDKit          3D

 43 45  0  0  0  0  0  0  0  0999 V2000
   22.3894   73.4090   -5.6172 P   0  0  2  0  0  0  0  0  0  0  0  0
   23.7229   72.6236   -6.0901 O   0  0  0  0  0  0  0  0  0  0  0  0
   22.2168   74.7774   -6.2086 O   0  0  0  0  0  0  0  0  0  0  0  0
   22.4527   73.3447   -4.0018 O   0  0  0  0  0  0  0  0  0  0  0  0
   21.4246   73.9739   -3.2592 C   0  0  0  0  0  0  0  0  0  0  0  0
   21.2191   71.7981   -2.2584 O   0  0  0  0  0  0  0  0  0  0  0  0
   18.4074   72.5833   -1.5736 O   0  0  0  0  0  0  0  0  0  0  0  0
   19.7199   72.9473    0.7888 O   0  0  0  0  0  0  0  0  0  0  0  0
   19.5886   73.3849   -1.5994 C   0  0  1  0  0  0  0  0  0  0  0  0
   20.4639   73.0670   -0.4056 C   0  0  2  0  0  0  0  0  0  0  0  0
   20.4514   72.9128   -2.7617 C   0  0  1  0  0  0  0  0  0  0  0  0
   21.1084   71.7574   -0.8269 C   0  0  2  0  0  0  0  0  0  0  0  0
   17.8401   72.8664   -0.8389 H   0  0  0  0  0  0  0  0  0  0  0  0
   19.3302   73.8070    1.0145 H   0  0  0  0  0  0  0  0  0  0  0  0
   21.9200   69.4912    0.6504 O   0  0  0  0  0  0  0  0  0  0  0  0
   26.1525   71.1993    1.2928 O   0  0  0  0  0  0  0  0  0  0  0  0
   22.4167   71.5839   -0.2621 N   0  0  0  0  0  0  0  0  0  0  0  0
   24.0269   70.3446    0.9698 N   0  0  0  0  0  0  0  0  0  0  0  0
   22.7223   70.4078    0.4629 C   0  0  0  0  0  0  0  0  0  0  0  0
   23.3810   72.5704   -0.4298 C   0  0  0  0  0  0  0  0  0  0  0  0
   24.6203   72.4958    0.0592 C   0  0  0  0  0  0  0  0  0  0  0  0
   25.0204   71.3001    0.8297 C   0  0  0  0  0  0  0  0  0  0  0  0
   24.2625   69.5361    1.4799 H   0  0  0  0  0  0  0  0  0  0  0  0
   21.2075   72.3664   -5.9764 O   0  0  0  0  0  0  0  0  0  0  0  0
   20.8010   71.6631   -7.3741 P   0  0  2  0  0  0  0  0  0  0  0  0
   21.5548   70.2324   -7.3013 O   0  0  0  0  0  0  0  0  0  0  0  0
   21.1332   72.4758   -8.5919 O   0  0  0  0  0  0  0  0  0  0  0  0
   19.2358   71.3072   -7.2132 O   0  0  0  0  0  0  0  0  0  0  0  0
   18.6016   69.5367   -5.7737 O   0  0  0  0  0  0  0  0  0  0  0  0
   15.1703   70.0706   -8.0119 O   0  0  0  0  0  0  0  0  0  0  0  0
   17.7970   70.1413   -9.2885 O   0  0  0  0  0  0  0  0  0  0  0  0
   15.2943   71.0456   -5.2761 O   0  0  0  0  0  0  0  0  0  0  0  0
   16.3718   70.4708   -7.3530 C   0  0  2  0  0  0  0  0  0  0  0  0
   17.5594   69.7164   -7.9515 C   0  0  2  0  0  0  0  0  0  0  0  0
   16.2274   70.1420   -5.8654 C   0  0  1  0  0  0  0  0  0  0  0  0
   18.8252   69.9440   -7.1241 C   0  0  1  0  0  0  0  0  0  0  0  0
   17.5605   70.2717   -5.1342 C   0  0  1  0  0  0  0  0  0  0  0  0
   15.2389   70.2698   -8.9590 H   0  0  0  0  0  0  0  0  0  0  0  0
   16.9978   70.0000   -9.8191 H   0  0  0  0  0  0  0  0  0  0  0  0
   14.4415   70.9731   -5.7325 H   0  0  0  0  0  0  0  0  0  0  0  0
   18.5552   70.0012   -3.0274 O   0  0  0  0  0  0  0  0  0  0  0  0
   16.5907   68.9049   -3.3985 O   0  0  0  0  0  0  0  0  0  0  0  0
   17.4871   69.6416   -3.7815 C   0  0  0  0  0  0  0  0  0  0  0  0
  1  4  1  0
  1 24  1  0
  1  2  1  6
  1  3  2  0
 25 28  1  0
 25 24  1  0
 25 26  1  6
 25 27  2  0
  6 11  1  0
  6 12  1  0
 29 36  1  0
 29 37  1  0
  9  7  1  1
  7 13  1  0
 10  8  1  1
  8 14  1  0
  4  5  1  0
 36 28  1  1
 33 30  1  6
 30 38  1  0
 34 31  1  6
 31 39  1  0
 35 32  1  1
 32 40  1  0
 41 43  1  0
 15 19  2  0
 42 43  2  0
 16 22  2  0
 12 17  1  1
 17 19  1  0
 17 20  1  0
 18 19  1  0
 18 22  1  0
 18 23  1  0
  9 10  1  0
  9 11  1  0
 10 12  1  0
 11  5  1  1
 33 34  1  0
 33 35  1  0
 34 36  1  0
 35 37  1  0
 37 43  1  1
 20 21  2  0
 21 22  1  0
M  CHG  3   2  -1  26  -1  41  -1
M  END
>  <COMPND>  (190) 
    udp_gluA.pdb 

>  <AUTHOR>  (190) 
    GENERATED BY OPEN BABEL 3.1.1

>  <MASTER>  (190) 
        0    0    0    0    0    0    0    0   56    0   56    0

>  <minimizedAffinity>  (190) 
-7.99659

>  <CNNscore>  (190) 
0.4722261727

>  <CNNaffinity>  (190) 
4.4709701538

>  <CNN_VS>  (190) 
2.1113090515

>  <CNNaffinity_variance>  (190) 
0.1557218134

$$$$
191
     RDKit          3D

 43 45  0  0  0  0  0  0  0  0999 V2000
   19.2006   70.6685   -1.7986 P   0  0  2  0  0  0  0  0  0  0  0  0
   18.6010   71.8003   -0.8095 O   0  0  0  0  0  0  0  0  0  0  0  0
   18.3745   69.4205   -1.9078 O   0  0  0  0  0  0  0  0  0  0  0  0
   20.7189   70.4628   -1.2784 O   0  0  0  0  0  0  0  0  0  0  0  0
   21.0189   70.7704    0.0706 C   0  0  0  0  0  0  0  0  0  0  0  0
   23.2423   70.6005   -0.8268 O   0  0  0  0  0  0  0  0  0  0  0  0
   24.1776   70.4384    2.0176 O   0  0  0  0  0  0  0  0  0  0  0  0
   24.6989   73.0345    1.3660 O   0  0  0  0  0  0  0  0  0  0  0  0
   23.1059   71.1999    1.4608 C   0  0  1  0  0  0  0  0  0  0  0  0
   23.6499   72.3799    0.6836 C   0  0  2  0  0  0  0  0  0  0  0  0
   22.4583   70.3668    0.3632 C   0  0  1  0  0  0  0  0  0  0  0  0
   24.1117   71.7224   -0.6058 C   0  0  2  0  0  0  0  0  0  0  0  0
   24.6069   70.9503    2.7214 H   0  0  0  0  0  0  0  0  0  0  0  0
   24.3541   73.4368    2.1792 H   0  0  0  0  0  0  0  0  0  0  0  0
   25.2501   71.1950   -3.1361 O   0  0  0  0  0  0  0  0  0  0  0  0
   23.7261   75.1899   -4.8573 O   0  0  0  0  0  0  0  0  0  0  0  0
   24.0275   72.6075   -1.7329 N   0  0  0  0  0  0  0  0  0  0  0  0
   24.4908   73.1857   -3.9906 N   0  0  0  0  0  0  0  0  0  0  0  0
   24.6344   72.2480   -2.9595 C   0  0  0  0  0  0  0  0  0  0  0  0
   23.3489   73.8146   -1.6177 C   0  0  0  0  0  0  0  0  0  0  0  0
   23.2204   74.6981   -2.6095 C   0  0  0  0  0  0  0  0  0  0  0  0
   23.8260   74.3994   -3.9238 C   0  0  0  0  0  0  0  0  0  0  0  0
   24.9067   72.9584   -4.8536 H   0  0  0  0  0  0  0  0  0  0  0  0
   19.3982   71.4691   -3.1888 O   0  0  0  0  0  0  0  0  0  0  0  0
   18.4027   72.4533   -3.9976 P   0  0  2  0  0  0  0  0  0  0  0  0
   19.1002   73.9043   -3.8296 O   0  0  0  0  0  0  0  0  0  0  0  0
   16.9743   72.3969   -3.5390 O   0  0  0  0  0  0  0  0  0  0  0  0
   18.6230   72.0728   -5.5498 O   0  0  0  0  0  0  0  0  0  0  0  0
   18.3435   69.7233   -5.4465 O   0  0  0  0  0  0  0  0  0  0  0  0
   18.2273   70.4054   -9.5195 O   0  0  0  0  0  0  0  0  0  0  0  0
   20.1750   71.7920   -7.8407 O   0  0  0  0  0  0  0  0  0  0  0  0
   15.7734   69.8535   -8.0618 O   0  0  0  0  0  0  0  0  0  0  0  0
   18.0230   70.7126   -8.1404 C   0  0  2  0  0  0  0  0  0  0  0  0
   19.3660   70.7037   -7.4097 C   0  0  2  0  0  0  0  0  0  0  0  0
   17.0903   69.6512   -7.5526 C   0  0  1  0  0  0  0  0  0  0  0  0
   19.1663   70.8003   -5.8966 C   0  0  1  0  0  0  0  0  0  0  0  0
   17.0424   69.7335   -6.0296 C   0  0  1  0  0  0  0  0  0  0  0  0
   18.8173   71.0667   -9.9142 H   0  0  0  0  0  0  0  0  0  0  0  0
   20.3057   71.7372   -8.8000 H   0  0  0  0  0  0  0  0  0  0  0  0
   15.7901   69.8037   -9.0304 H   0  0  0  0  0  0  0  0  0  0  0  0
   17.2564   67.8862   -4.6002 O   0  0  0  0  0  0  0  0  0  0  0  0
   15.2758   68.1225   -5.7051 O   0  0  0  0  0  0  0  0  0  0  0  0
   16.4063   68.5112   -5.4521 C   0  0  0  0  0  0  0  0  0  0  0  0
  1  4  1  0
  1 24  1  0
  1  2  1  1
  1  3  2  0
 25 28  1  0
 25 24  1  0
 25 26  1  6
 25 27  2  0
  6 11  1  0
  6 12  1  0
 29 36  1  0
 29 37  1  0
  9  7  1  6
  7 13  1  0
 10  8  1  1
  8 14  1  0
  4  5  1  0
 36 28  1  6
 33 30  1  6
 30 38  1  0
 34 31  1  6
 31 39  1  0
 35 32  1  6
 32 40  1  0
 41 43  1  0
 15 19  2  0
 42 43  2  0
 16 22  2  0
 12 17  1  6
 17 19  1  0
 17 20  1  0
 18 19  1  0
 18 22  1  0
 18 23  1  0
  9 10  1  0
  9 11  1  0
 10 12  1  0
 11  5  1  6
 33 34  1  0
 33 35  1  0
 34 36  1  0
 35 37  1  0
 37 43  1  1
 20 21  2  0
 21 22  1  0
M  CHG  3   2  -1  26  -1  41  -1
M  END
>  <COMPND>  (191) 
    udp_gluA.pdb 

>  <AUTHOR>  (191) 
    GENERATED BY OPEN BABEL 3.1.1

>  <MASTER>  (191) 
        0    0    0    0    0    0    0    0   56    0   56    0

>  <minimizedAffinity>  (191) 
-7.70640

>  <CNNscore>  (191) 
0.4693866670

>  <CNNaffinity>  (191) 
4.2482690811

>  <CNN_VS>  (191) 
1.9940809011

>  <CNNaffinity_variance>  (191) 
0.4746212959

$$$$
192
     RDKit          3D

 43 45  0  0  0  0  0  0  0  0999 V2000
   24.5268   72.4600   -2.9764 P   0  0  2  0  0  0  0  0  0  0  0  0
   25.0485   70.9316   -2.8740 O   0  0  0  0  0  0  0  0  0  0  0  0
   25.5286   73.4363   -3.5199 O   0  0  0  0  0  0  0  0  0  0  0  0
   23.9676   72.7800   -1.4923 O   0  0  0  0  0  0  0  0  0  0  0  0
   24.3462   71.9261   -0.4284 C   0  0  0  0  0  0  0  0  0  0  0  0
   24.0203   71.6787    1.9402 O   0  0  0  0  0  0  0  0  0  0  0  0
   21.7122   73.5679    1.6318 O   0  0  0  0  0  0  0  0  0  0  0  0
   23.6753   75.1819    2.6205 O   0  0  0  0  0  0  0  0  0  0  0  0
   22.9688   73.5583    0.9541 C   0  0  1  0  0  0  0  0  0  0  0  0
   24.0656   74.0467    1.8765 C   0  0  2  0  0  0  0  0  0  0  0  0
   23.3679   72.1069    0.7251 C   0  0  1  0  0  0  0  0  0  0  0  0
   24.3073   72.8287    2.7516 C   0  0  2  0  0  0  0  0  0  0  0  0
   21.4364   74.4849    1.7892 H   0  0  0  0  0  0  0  0  0  0  0  0
   23.5339   75.9300    2.0185 H   0  0  0  0  0  0  0  0  0  0  0  0
   25.2609   74.0395    5.1184 O   0  0  0  0  0  0  0  0  0  0  0  0
   29.5314   72.4486    4.4285 O   0  0  0  0  0  0  0  0  0  0  0  0
   25.6638   72.7469    3.2143 N   0  0  0  0  0  0  0  0  0  0  0  0
   27.3871   73.2468    4.7720 N   0  0  0  0  0  0  0  0  0  0  0  0
   26.0397   73.3916    4.4164 C   0  0  0  0  0  0  0  0  0  0  0  0
   26.6046   72.0334    2.4817 C   0  0  0  0  0  0  0  0  0  0  0  0
   27.8854   71.9042    2.8334 C   0  0  0  0  0  0  0  0  0  0  0  0
   28.3601   72.5481    4.0758 C   0  0  0  0  0  0  0  0  0  0  0  0
   27.6730   73.6886    5.6041 H   0  0  0  0  0  0  0  0  0  0  0  0
   23.1752   72.3242   -3.8526 O   0  0  0  0  0  0  0  0  0  0  0  0
   22.6429   73.1732   -5.1212 P   0  0  2  0  0  0  0  0  0  0  0  0
   23.5937   72.6677   -6.3298 O   0  0  0  0  0  0  0  0  0  0  0  0
   22.6461   74.6599   -4.9123 O   0  0  0  0  0  0  0  0  0  0  0  0
   21.1939   72.5470   -5.4538 O   0  0  0  0  0  0  0  0  0  0  0  0
   20.0397   70.7489   -4.4322 O   0  0  0  0  0  0  0  0  0  0  0  0
   18.7522   70.4582   -8.3470 O   0  0  0  0  0  0  0  0  0  0  0  0
   21.5564   71.0167   -7.7479 O   0  0  0  0  0  0  0  0  0  0  0  0
   16.9934   71.5579   -6.3104 O   0  0  0  0  0  0  0  0  0  0  0  0
   19.2029   71.1282   -7.1697 C   0  0  2  0  0  0  0  0  0  0  0  0
   20.5896   70.6114   -6.7858 C   0  0  2  0  0  0  0  0  0  0  0  0
   18.1997   70.8428   -6.0499 C   0  0  1  0  0  0  0  0  0  0  0  0
   21.0066   71.1336   -5.4102 C   0  0  1  0  0  0  0  0  0  0  0  0
   18.7418   71.2791   -4.6918 C   0  0  1  0  0  0  0  0  0  0  0  0
   19.3744   70.6251   -9.0725 H   0  0  0  0  0  0  0  0  0  0  0  0
   21.2980   70.6890   -8.6233 H   0  0  0  0  0  0  0  0  0  0  0  0
   16.6380   71.2896   -7.1721 H   0  0  0  0  0  0  0  0  0  0  0  0
   18.6424   69.8210   -2.8572 O   0  0  0  0  0  0  0  0  0  0  0  0
   16.7533   70.9968   -3.3548 O   0  0  0  0  0  0  0  0  0  0  0  0
   17.9183   70.7081   -3.5836 C   0  0  0  0  0  0  0  0  0  0  0  0
  1  4  1  0
  1 24  1  0
  1  2  1  1
  1  3  2  0
 25 28  1  0
 25 24  1  0
 25 26  1  6
 25 27  2  0
  6 11  1  0
  6 12  1  0
 29 36  1  0
 29 37  1  0
  9  7  1  1
  7 13  1  0
 10  8  1  1
  8 14  1  0
  4  5  1  0
 36 28  1  6
 33 30  1  6
 30 38  1  0
 34 31  1  6
 31 39  1  0
 35 32  1  6
 32 40  1  0
 41 43  1  0
 15 19  2  0
 42 43  2  0
 16 22  2  0
 12 17  1  6
 17 19  1  0
 17 20  1  0
 18 19  1  0
 18 22  1  0
 18 23  1  0
  9 10  1  0
  9 11  1  0
 10 12  1  0
 11  5  1  6
 33 34  1  0
 33 35  1  0
 34 36  1  0
 35 37  1  0
 37 43  1  1
 20 21  2  0
 21 22  1  0
M  CHG  3   2  -1  26  -1  41  -1
M  END
>  <COMPND>  (192) 
    udp_gluA.pdb 

>  <AUTHOR>  (192) 
    GENERATED BY OPEN BABEL 3.1.1

>  <MASTER>  (192) 
        0    0    0    0    0    0    0    0   56    0   56    0

>  <minimizedAffinity>  (192) 
-6.70389

>  <CNNscore>  (192) 
0.4539695978

>  <CNNaffinity>  (192) 
4.2770876884

>  <CNN_VS>  (192) 
1.9416677952

>  <CNNaffinity_variance>  (192) 
0.0394311249

$$$$
193
     RDKit          3D

 43 45  0  0  0  0  0  0  0  0999 V2000
   18.9727   73.3689   -3.2992 P   0  0  2  0  0  0  0  0  0  0  0  0
   19.3074   74.4002   -2.0978 O   0  0  0  0  0  0  0  0  0  0  0  0
   17.5267   73.3048   -3.6948 O   0  0  0  0  0  0  0  0  0  0  0  0
   19.6293   71.9740   -2.8081 O   0  0  0  0  0  0  0  0  0  0  0  0
   19.5270   71.6232   -1.4402 C   0  0  0  0  0  0  0  0  0  0  0  0
   21.6392   70.6744   -2.0852 O   0  0  0  0  0  0  0  0  0  0  0  0
   21.7286   69.4756    0.6618 O   0  0  0  0  0  0  0  0  0  0  0  0
   23.3846   71.6292    0.8974 O   0  0  0  0  0  0  0  0  0  0  0  0
   21.2171   70.7416    0.2446 C   0  0  1  0  0  0  0  0  0  0  0  0
   22.3554   71.6897   -0.0678 C   0  0  2  0  0  0  0  0  0  0  0  0
   20.5699   70.5597   -1.1215 C   0  0  1  0  0  0  0  0  0  0  0  0
   22.8059   71.2021   -1.4343 C   0  0  2  0  0  0  0  0  0  0  0  0
   22.1471   69.5666    1.5326 H   0  0  0  0  0  0  0  0  0  0  0  0
   23.0481   71.9502    1.7493 H   0  0  0  0  0  0  0  0  0  0  0  0
   25.1536   70.9696   -2.9870 O   0  0  0  0  0  0  0  0  0  0  0  0
   24.8119   75.3151   -4.4850 O   0  0  0  0  0  0  0  0  0  0  0  0
   23.3530   72.2571   -2.2396 N   0  0  0  0  0  0  0  0  0  0  0  0
   24.9817   73.1344   -3.7308 N   0  0  0  0  0  0  0  0  0  0  0  0
   24.5374   72.0369   -2.9817 C   0  0  0  0  0  0  0  0  0  0  0  0
   22.7174   73.4918   -2.2902 C   0  0  0  0  0  0  0  0  0  0  0  0
   23.1528   74.5284   -3.0090 C   0  0  0  0  0  0  0  0  0  0  0  0
   24.3843   74.3818   -3.8123 C   0  0  0  0  0  0  0  0  0  0  0  0
   25.8057   73.0059   -4.2541 H   0  0  0  0  0  0  0  0  0  0  0  0
   19.9724   73.8464   -4.4763 O   0  0  0  0  0  0  0  0  0  0  0  0
   20.4201   73.1188   -5.8488 P   0  0  2  0  0  0  0  0  0  0  0  0
   21.6228   72.1442   -5.3754 O   0  0  0  0  0  0  0  0  0  0  0  0
   20.7894   74.0643   -6.9550 O   0  0  0  0  0  0  0  0  0  0  0  0
   19.2018   72.1212   -6.1995 O   0  0  0  0  0  0  0  0  0  0  0  0
   18.7351   70.0316   -5.1871 O   0  0  0  0  0  0  0  0  0  0  0  0
   17.1133   69.5223   -8.9526 O   0  0  0  0  0  0  0  0  0  0  0  0
   19.6977   70.8431   -8.6196 O   0  0  0  0  0  0  0  0  0  0  0  0
   15.3785   69.9954   -6.6684 O   0  0  0  0  0  0  0  0  0  0  0  0
   17.4972   70.2513   -7.7867 C   0  0  2  0  0  0  0  0  0  0  0  0
   19.0095   70.1424   -7.5900 C   0  0  2  0  0  0  0  0  0  0  0  0
   16.7599   69.6492   -6.5884 C   0  0  1  0  0  0  0  0  0  0  0  0
   19.4273   70.7131   -6.2340 C   0  0  1  0  0  0  0  0  0  0  0  0
   17.3188   70.1744   -5.2692 C   0  0  1  0  0  0  0  0  0  0  0  0
   17.5697   69.8872   -9.7271 H   0  0  0  0  0  0  0  0  0  0  0  0
   19.4372   70.4863   -9.4828 H   0  0  0  0  0  0  0  0  0  0  0  0
   15.0107   69.6670   -7.5037 H   0  0  0  0  0  0  0  0  0  0  0  0
   15.5443   69.6576   -3.8251 O   0  0  0  0  0  0  0  0  0  0  0  0
   17.4941   68.5136   -3.5278 O   0  0  0  0  0  0  0  0  0  0  0  0
   16.8316   69.3512   -4.1215 C   0  0  0  0  0  0  0  0  0  0  0  0
  1  4  1  0
  1 24  1  0
  1  2  1  1
  1  3  2  0
 25 28  1  0
 25 24  1  0
 25 26  1  1
 25 27  2  0
  6 11  1  0
  6 12  1  0
 29 36  1  0
 29 37  1  0
  9  7  1  6
  7 13  1  0
 10  8  1  1
  8 14  1  0
  4  5  1  0
 36 28  1  6
 33 30  1  6
 30 38  1  0
 34 31  1  6
 31 39  1  0
 35 32  1  6
 32 40  1  0
 41 43  1  0
 15 19  2  0
 42 43  2  0
 16 22  2  0
 12 17  1  6
 17 19  1  0
 17 20  1  0
 18 19  1  0
 18 22  1  0
 18 23  1  0
  9 10  1  0
  9 11  1  0
 10 12  1  0
 11  5  1  6
 33 34  1  0
 33 35  1  0
 34 36  1  0
 35 37  1  0
 37 43  1  1
 20 21  2  0
 21 22  1  0
M  CHG  3   2  -1  26  -1  41  -1
M  END
>  <COMPND>  (193) 
    udp_gluA.pdb 

>  <AUTHOR>  (193) 
    GENERATED BY OPEN BABEL 3.1.1

>  <MASTER>  (193) 
        0    0    0    0    0    0    0    0   56    0   56    0

>  <minimizedAffinity>  (193) 
-7.51047

>  <CNNscore>  (193) 
0.4501380324

>  <CNNaffinity>  (193) 
4.1069254875

>  <CNN_VS>  (193) 
1.8486833572

>  <CNNaffinity_variance>  (193) 
0.6862715483

$$$$
194
     RDKit          3D

 43 45  0  0  0  0  0  0  0  0999 V2000
   18.2378   73.3640   -1.9052 P   0  0  2  0  0  0  0  0  0  0  0  0
   17.9314   72.6707   -0.4754 O   0  0  0  0  0  0  0  0  0  0  0  0
   19.1161   74.5792   -1.8448 O   0  0  0  0  0  0  0  0  0  0  0  0
   16.7710   73.5886   -2.5504 O   0  0  0  0  0  0  0  0  0  0  0  0
   16.6796   73.9102   -3.9261 C   0  0  0  0  0  0  0  0  0  0  0  0
   15.9611   72.5639   -5.7832 O   0  0  0  0  0  0  0  0  0  0  0  0
   13.6895   71.6905   -4.0314 O   0  0  0  0  0  0  0  0  0  0  0  0
   15.4111   69.5819   -3.8702 O   0  0  0  0  0  0  0  0  0  0  0  0
   15.0432   71.9779   -3.6797 C   0  0  1  0  0  0  0  0  0  0  0  0
   15.9530   70.8582   -4.1389 C   0  0  2  0  0  0  0  0  0  0  0  0
   15.5143   73.1436   -4.5384 C   0  0  1  0  0  0  0  0  0  0  0  0
   16.0745   71.1405   -5.6266 C   0  0  2  0  0  0  0  0  0  0  0  0
   13.3664   70.9488   -3.4957 H   0  0  0  0  0  0  0  0  0  0  0  0
   15.3544   69.4503   -2.9103 H   0  0  0  0  0  0  0  0  0  0  0  0
   16.7268   68.4547   -6.2076 O   0  0  0  0  0  0  0  0  0  0  0  0
   20.9366   69.6064   -7.6892 O   0  0  0  0  0  0  0  0  0  0  0  0
   17.3339   70.7104   -6.1649 N   0  0  0  0  0  0  0  0  0  0  0  0
   18.8232   69.0308   -6.9440 N   0  0  0  0  0  0  0  0  0  0  0  0
   17.5603   69.3373   -6.4205 C   0  0  0  0  0  0  0  0  0  0  0  0
   18.3275   71.6434   -6.4355 C   0  0  0  0  0  0  0  0  0  0  0  0
   19.5263   71.3361   -6.9346 C   0  0  0  0  0  0  0  0  0  0  0  0
   19.8438   69.9234   -7.2292 C   0  0  0  0  0  0  0  0  0  0  0  0
   19.0049   68.0809   -7.1282 H   0  0  0  0  0  0  0  0  0  0  0  0
   18.8363   72.1433   -2.7796 O   0  0  0  0  0  0  0  0  0  0  0  0
   19.5774   70.7788   -2.3296 P   0  0  2  0  0  0  0  0  0  0  0  0
   20.1808   70.2098   -3.7198 O   0  0  0  0  0  0  0  0  0  0  0  0
   18.6940   69.8111   -1.5969 O   0  0  0  0  0  0  0  0  0  0  0  0
   20.8684   71.2699   -1.4962 O   0  0  0  0  0  0  0  0  0  0  0  0
   23.0640   71.1790   -2.3796 O   0  0  0  0  0  0  0  0  0  0  0  0
   23.7979   71.3230    1.6835 O   0  0  0  0  0  0  0  0  0  0  0  0
   21.6500   69.6495    0.6250 O   0  0  0  0  0  0  0  0  0  0  0  0
   24.2071   73.6872    0.0422 O   0  0  0  0  0  0  0  0  0  0  0  0
   23.0862   71.5993    0.4772 C   0  0  2  0  0  0  0  0  0  0  0  0
   22.6448   70.2858   -0.1688 C   0  0  2  0  0  0  0  0  0  0  0  0
   24.0231   72.3648   -0.4598 C   0  0  1  0  0  0  0  0  0  0  0  0
   22.0839   70.5271   -1.5710 C   0  0  1  0  0  0  0  0  0  0  0  0
   23.4488   72.4542   -1.8708 C   0  0  1  0  0  0  0  0  0  0  0  0
   23.2223   70.8367    2.2946 H   0  0  0  0  0  0  0  0  0  0  0  0
   21.9990   69.4936    1.5162 H   0  0  0  0  0  0  0  0  0  0  0  0
   24.5720   73.6444    0.9398 H   0  0  0  0  0  0  0  0  0  0  0  0
   24.8327   74.1949   -2.6166 O   0  0  0  0  0  0  0  0  0  0  0  0
   24.9809   72.2038   -3.7177 O   0  0  0  0  0  0  0  0  0  0  0  0
   24.4930   72.9015   -2.8412 C   0  0  0  0  0  0  0  0  0  0  0  0
  1  4  1  0
  1 24  1  0
  1  2  1  1
  1  3  2  0
 25 28  1  0
 25 24  1  0
 25 26  1  6
 25 27  2  0
  6 11  1  0
  6 12  1  0
 29 36  1  0
 29 37  1  0
  9  7  1  6
  7 13  1  0
 10  8  1  6
  8 14  1  0
  4  5  1  0
 36 28  1  1
 33 30  1  1
 30 38  1  0
 34 31  1  1
 31 39  1  0
 35 32  1  1
 32 40  1  0
 41 43  1  0
 15 19  2  0
 42 43  2  0
 16 22  2  0
 12 17  1  1
 17 19  1  0
 17 20  1  0
 18 19  1  0
 18 22  1  0
 18 23  1  0
  9 10  1  0
  9 11  1  0
 10 12  1  0
 11  5  1  1
 33 34  1  0
 33 35  1  0
 34 36  1  0
 35 37  1  0
 37 43  1  6
 20 21  2  0
 21 22  1  0
M  CHG  3   2  -1  26  -1  41  -1
M  END
>  <COMPND>  (194) 
    udp_gluA.pdb 

>  <AUTHOR>  (194) 
    GENERATED BY OPEN BABEL 3.1.1

>  <MASTER>  (194) 
        0    0    0    0    0    0    0    0   56    0   56    0

>  <minimizedAffinity>  (194) 
-6.59613

>  <CNNscore>  (194) 
0.4436593056

>  <CNNaffinity>  (194) 
4.1846036911

>  <CNN_VS>  (194) 
1.8565384150

>  <CNNaffinity_variance>  (194) 
0.2587769330

$$$$
195
     RDKit          3D

 43 45  0  0  0  0  0  0  0  0999 V2000
   22.2092   74.1004   -5.8269 P   0  0  2  0  0  0  0  0  0  0  0  0
   20.9845   74.1675   -4.7712 O   0  0  0  0  0  0  0  0  0  0  0  0
   22.8641   75.4178   -6.1222 O   0  0  0  0  0  0  0  0  0  0  0  0
   21.5813   73.3265   -7.1016 O   0  0  0  0  0  0  0  0  0  0  0  0
   20.3436   72.6574   -6.9439 C   0  0  0  0  0  0  0  0  0  0  0  0
   19.8739   70.8206   -5.4663 O   0  0  0  0  0  0  0  0  0  0  0  0
   20.8533   69.0393   -7.6706 O   0  0  0  0  0  0  0  0  0  0  0  0
   18.1436   68.8377   -7.9011 O   0  0  0  0  0  0  0  0  0  0  0  0
   20.1125   70.2570   -7.7545 C   0  0  1  0  0  0  0  0  0  0  0  0
   18.6731   70.0239   -7.3469 C   0  0  2  0  0  0  0  0  0  0  0  0
   20.6087   71.1855   -6.6546 C   0  0  1  0  0  0  0  0  0  0  0  0
   18.7797   69.9651   -5.8326 C   0  0  2  0  0  0  0  0  0  0  0  0
   20.5538   68.4298   -8.3638 H   0  0  0  0  0  0  0  0  0  0  0  0
   18.0957   68.9251   -8.8665 H   0  0  0  0  0  0  0  0  0  0  0  0
   17.5725   68.6873   -3.6221 O   0  0  0  0  0  0  0  0  0  0  0  0
   14.2055   71.8279   -3.4131 O   0  0  0  0  0  0  0  0  0  0  0  0
   17.5870   70.4275   -5.1810 N   0  0  0  0  0  0  0  0  0  0  0  0
   15.8961   70.2521   -3.5208 N   0  0  0  0  0  0  0  0  0  0  0  0
   17.0625   69.7122   -4.0786 C   0  0  0  0  0  0  0  0  0  0  0  0
   16.9510   71.5773   -5.6329 C   0  0  0  0  0  0  0  0  0  0  0  0
   15.8400   72.0799   -5.0909 C   0  0  0  0  0  0  0  0  0  0  0  0
   15.2269   71.3922   -3.9356 C   0  0  0  0  0  0  0  0  0  0  0  0
   15.5111   69.7703   -2.7533 H   0  0  0  0  0  0  0  0  0  0  0  0
   23.1893   72.9922   -5.1757 O   0  0  0  0  0  0  0  0  0  0  0  0
   23.8287   72.8796   -3.6951 P   0  0  2  0  0  0  0  0  0  0  0  0
   23.6917   74.3855   -3.1175 O   0  0  0  0  0  0  0  0  0  0  0  0
   25.2262   72.3316   -3.6679 O   0  0  0  0  0  0  0  0  0  0  0  0
   22.7561   72.0203   -2.8503 O   0  0  0  0  0  0  0  0  0  0  0  0
   20.8268   72.8959   -1.7920 O   0  0  0  0  0  0  0  0  0  0  0  0
   21.5554   69.5083    0.4578 O   0  0  0  0  0  0  0  0  0  0  0  0
   23.7600   71.2329   -0.3789 O   0  0  0  0  0  0  0  0  0  0  0  0
   19.3940   69.5320   -1.4862 O   0  0  0  0  0  0  0  0  0  0  0  0
   21.5425   70.3107   -0.7229 C   0  0  2  0  0  0  0  0  0  0  0  0
   22.3822   71.5682   -0.4963 C   0  0  2  0  0  0  0  0  0  0  0  0
   20.0899   70.6876   -1.0227 C   0  0  1  0  0  0  0  0  0  0  0  0
   22.2069   72.5581   -1.6487 C   0  0  1  0  0  0  0  0  0  0  0  0
   20.0052   71.7705   -2.0945 C   0  0  1  0  0  0  0  0  0  0  0  0
   22.4685   69.2567    0.6680 H   0  0  0  0  0  0  0  0  0  0  0  0
   23.8785   70.6048    0.3504 H   0  0  0  0  0  0  0  0  0  0  0  0
   19.4405   68.8350   -0.8132 H   0  0  0  0  0  0  0  0  0  0  0  0
   17.7984   71.7035   -1.3026 O   0  0  0  0  0  0  0  0  0  0  0  0
   18.3019   73.3059   -2.8447 O   0  0  0  0  0  0  0  0  0  0  0  0
   18.6335   72.3605   -2.1452 C   0  0  0  0  0  0  0  0  0  0  0  0
  1  4  1  0
  1 24  1  0
  1  2  1  1
  1  3  2  0
 25 28  1  0
 25 24  1  0
 25 26  1  1
 25 27  2  0
  6 11  1  0
  6 12  1  0
 29 36  1  0
 29 37  1  0
  9  7  1  1
  7 13  1  0
 10  8  1  6
  8 14  1  0
  4  5  1  0
 36 28  1  6
 33 30  1  1
 30 38  1  0
 34 31  1  6
 31 39  1  0
 35 32  1  6
 32 40  1  0
 41 43  1  0
 15 19  2  0
 42 43  2  0
 16 22  2  0
 12 17  1  1
 17 19  1  0
 17 20  1  0
 18 19  1  0
 18 22  1  0
 18 23  1  0
  9 10  1  0
  9 11  1  0
 10 12  1  0
 11  5  1  6
 33 34  1  0
 33 35  1  0
 34 36  1  0
 35 37  1  0
 37 43  1  1
 20 21  2  0
 21 22  1  0
M  CHG  3   2  -1  26  -1  41  -1
M  END
>  <COMPND>  (195) 
    udp_gluA.pdb 

>  <AUTHOR>  (195) 
    GENERATED BY OPEN BABEL 3.1.1

>  <MASTER>  (195) 
        0    0    0    0    0    0    0    0   56    0   56    0

>  <minimizedAffinity>  (195) 
-6.94399

>  <CNNscore>  (195) 
0.4064653218

>  <CNNaffinity>  (195) 
4.0708374977

>  <CNN_VS>  (195) 
1.6546542645

>  <CNNaffinity_variance>  (195) 
0.8267093897

$$$$
196
     RDKit          3D

 43 45  0  0  0  0  0  0  0  0999 V2000
   19.5190   73.6249   -4.6776 P   0  0  2  0  0  0  0  0  0  0  0  0
   19.9629   74.7756   -5.7254 O   0  0  0  0  0  0  0  0  0  0  0  0
   18.0375   73.4731   -4.4934 O   0  0  0  0  0  0  0  0  0  0  0  0
   20.3615   73.9713   -3.3403 O   0  0  0  0  0  0  0  0  0  0  0  0
   21.2361   72.9878   -2.8185 C   0  0  0  0  0  0  0  0  0  0  0  0
   23.2883   73.7297   -1.8108 O   0  0  0  0  0  0  0  0  0  0  0  0
   24.6198   72.9299   -4.3757 O   0  0  0  0  0  0  0  0  0  0  0  0
   25.2004   70.8381   -2.7255 O   0  0  0  0  0  0  0  0  0  0  0  0
   23.5275   72.3130   -3.6940 C   0  0  1  0  0  0  0  0  0  0  0  0
   24.0237   71.5756   -2.4684 C   0  0  2  0  0  0  0  0  0  0  0  0
   22.6748   73.4146   -3.0795 C   0  0  1  0  0  0  0  0  0  0  0  0
   24.2490   72.7123   -1.4860 C   0  0  2  0  0  0  0  0  0  0  0  0
   25.1790   72.2457   -4.7767 H   0  0  0  0  0  0  0  0  0  0  0  0
   25.0048   70.1265   -3.3558 H   0  0  0  0  0  0  0  0  0  0  0  0
   25.9104   70.8850   -0.1159 O   0  0  0  0  0  0  0  0  0  0  0  0
   23.4106   71.2235    3.7416 O   0  0  0  0  0  0  0  0  0  0  0  0
   24.0552   72.3052   -0.1231 N   0  0  0  0  0  0  0  0  0  0  0  0
   24.6632   71.0545    1.8037 N   0  0  0  0  0  0  0  0  0  0  0  0
   24.9472   71.3814    0.4712 C   0  0  0  0  0  0  0  0  0  0  0  0
   22.9933   72.8203    0.6104 C   0  0  0  0  0  0  0  0  0  0  0  0
   22.7355   72.4993    1.8797 C   0  0  0  0  0  0  0  0  0  0  0  0
   23.6191   71.5400    2.5743 C   0  0  0  0  0  0  0  0  0  0  0  0
   25.2692   70.4117    2.2382 H   0  0  0  0  0  0  0  0  0  0  0  0
   20.2652   72.3087   -5.2464 O   0  0  0  0  0  0  0  0  0  0  0  0
   20.4079   71.7367   -6.7517 P   0  0  2  0  0  0  0  0  0  0  0  0
   21.2210   70.3522   -6.5458 O   0  0  0  0  0  0  0  0  0  0  0  0
   21.0488   72.6927   -7.7157 O   0  0  0  0  0  0  0  0  0  0  0  0
   18.9161   71.2761   -7.1577 O   0  0  0  0  0  0  0  0  0  0  0  0
   18.2801   69.5419   -5.6754 O   0  0  0  0  0  0  0  0  0  0  0  0
   14.9149   69.8985   -8.0454 O   0  0  0  0  0  0  0  0  0  0  0  0
   17.5813   69.9961   -9.2352 O   0  0  0  0  0  0  0  0  0  0  0  0
   14.9186   70.9751   -5.3451 O   0  0  0  0  0  0  0  0  0  0  0  0
   16.0819   70.3557   -7.3620 C   0  0  2  0  0  0  0  0  0  0  0  0
   17.3091   69.6135   -7.8920 C   0  0  2  0  0  0  0  0  0  0  0  0
   15.8952   70.0771   -5.8689 C   0  0  1  0  0  0  0  0  0  0  0  0
   18.5392   69.9062   -7.0318 C   0  0  1  0  0  0  0  0  0  0  0  0
   17.1984   70.2703   -5.0989 C   0  0  1  0  0  0  0  0  0  0  0  0
   15.0108   70.0651   -8.9964 H   0  0  0  0  0  0  0  0  0  0  0  0
   16.8048   69.8135   -9.7866 H   0  0  0  0  0  0  0  0  0  0  0  0
   14.0843   70.8623   -5.8267 H   0  0  0  0  0  0  0  0  0  0  0  0
   16.3426   70.4815   -2.9252 O   0  0  0  0  0  0  0  0  0  0  0  0
   17.6123   68.6403   -3.3688 O   0  0  0  0  0  0  0  0  0  0  0  0
   17.0952   69.6879   -3.7269 C   0  0  0  0  0  0  0  0  0  0  0  0
  1  4  1  0
  1 24  1  0
  1  2  1  6
  1  3  2  0
 25 28  1  0
 25 24  1  0
 25 26  1  1
 25 27  2  0
  6 11  1  0
  6 12  1  0
 29 36  1  0
 29 37  1  0
  9  7  1  1
  7 13  1  0
 10  8  1  6
  8 14  1  0
  4  5  1  0
 36 28  1  1
 33 30  1  6
 30 38  1  0
 34 31  1  6
 31 39  1  0
 35 32  1  1
 32 40  1  0
 41 43  1  0
 15 19  2  0
 42 43  2  0
 16 22  2  0
 12 17  1  1
 17 19  1  0
 17 20  1  0
 18 19  1  0
 18 22  1  0
 18 23  1  0
  9 10  1  0
  9 11  1  0
 10 12  1  0
 11  5  1  1
 33 34  1  0
 33 35  1  0
 34 36  1  0
 35 37  1  0
 37 43  1  1
 20 21  2  0
 21 22  1  0
M  CHG  3   2  -1  26  -1  41  -1
M  END
>  <COMPND>  (196) 
    udp_gluA.pdb 

>  <AUTHOR>  (196) 
    GENERATED BY OPEN BABEL 3.1.1

>  <MASTER>  (196) 
        0    0    0    0    0    0    0    0   56    0   56    0

>  <minimizedAffinity>  (196) 
-7.65759

>  <CNNscore>  (196) 
0.3924702108

>  <CNNaffinity>  (196) 
4.2854604721

>  <CNN_VS>  (196) 
1.6819155216

>  <CNNaffinity_variance>  (196) 
0.1983838826

$$$$
197
     RDKit          3D

 43 45  0  0  0  0  0  0  0  0999 V2000
   17.3919   70.0901   -2.2761 P   0  0  2  0  0  0  0  0  0  0  0  0
   17.2299   68.6190   -1.6213 O   0  0  0  0  0  0  0  0  0  0  0  0
   16.2735   71.0442   -1.9750 O   0  0  0  0  0  0  0  0  0  0  0  0
   17.6569   69.7905   -3.8439 O   0  0  0  0  0  0  0  0  0  0  0  0
   16.6866   69.0536   -4.5649 C   0  0  0  0  0  0  0  0  0  0  0  0
   16.8101   71.1799   -5.6788 O   0  0  0  0  0  0  0  0  0  0  0  0
   14.9456   70.0115   -7.7159 O   0  0  0  0  0  0  0  0  0  0  0  0
   17.3683   69.8344   -8.9548 O   0  0  0  0  0  0  0  0  0  0  0  0
   16.0041   69.3820   -6.9936 C   0  0  1  0  0  0  0  0  0  0  0  0
   17.3456   69.8189   -7.5428 C   0  0  2  0  0  0  0  0  0  0  0  0
   16.0283   69.9691   -5.5890 C   0  0  1  0  0  0  0  0  0  0  0  0
   17.4967   71.2053   -6.9403 C   0  0  2  0  0  0  0  0  0  0  0  0
   14.9103   69.6526   -8.6168 H   0  0  0  0  0  0  0  0  0  0  0  0
   17.2690   68.9289   -9.2897 H   0  0  0  0  0  0  0  0  0  0  0  0
   18.4232   73.8479   -6.5730 O   0  0  0  0  0  0  0  0  0  0  0  0
   22.7874   72.4455   -6.0927 O   0  0  0  0  0  0  0  0  0  0  0  0
   18.8700   71.5592   -6.7174 N   0  0  0  0  0  0  0  0  0  0  0  0
   20.5960   73.1470   -6.3352 N   0  0  0  0  0  0  0  0  0  0  0  0
   19.2300   72.9167   -6.5450 C   0  0  0  0  0  0  0  0  0  0  0  0
   19.8428   70.5681   -6.6696 C   0  0  0  0  0  0  0  0  0  0  0  0
   21.1409   70.8030   -6.4687 C   0  0  0  0  0  0  0  0  0  0  0  0
   21.6007   72.1946   -6.2802 C   0  0  0  0  0  0  0  0  0  0  0  0
   20.8712   74.0846   -6.2145 H   0  0  0  0  0  0  0  0  0  0  0  0
   18.8433   70.5652   -1.7465 O   0  0  0  0  0  0  0  0  0  0  0  0
   19.5782   72.0037   -1.8114 P   0  0  2  0  0  0  0  0  0  0  0  0
   18.6763   72.9244   -0.8319 O   0  0  0  0  0  0  0  0  0  0  0  0
   19.7387   72.5511   -3.2001 O   0  0  0  0  0  0  0  0  0  0  0  0
   20.9628   71.7925   -1.0109 O   0  0  0  0  0  0  0  0  0  0  0  0
   22.8821   71.4407   -2.3532 O   0  0  0  0  0  0  0  0  0  0  0  0
   24.2974   70.4765    1.4065 O   0  0  0  0  0  0  0  0  0  0  0  0
   21.6468   69.5951    0.5510 O   0  0  0  0  0  0  0  0  0  0  0  0
   25.0178   73.0129    0.1823 O   0  0  0  0  0  0  0  0  0  0  0  0
   23.4887   71.1713    0.4571 C   0  0  2  0  0  0  0  0  0  0  0  0
   22.6240   70.1697   -0.3089 C   0  0  2  0  0  0  0  0  0  0  0  0
   24.4200   71.9143   -0.5034 C   0  0  1  0  0  0  0  0  0  0  0  0
   21.9173   70.8445   -1.4853 C   0  0  1  0  0  0  0  0  0  0  0  0
   23.6601   72.4499   -1.7135 C   0  0  1  0  0  0  0  0  0  0  0  0
   23.7270   69.9966    2.0276 H   0  0  0  0  0  0  0  0  0  0  0  0
   22.0882   69.1654    1.2999 H   0  0  0  0  0  0  0  0  0  0  0  0
   25.5045   72.6856    0.9549 H   0  0  0  0  0  0  0  0  0  0  0  0
   24.9302   74.1852   -2.6500 O   0  0  0  0  0  0  0  0  0  0  0  0
   25.0364   72.1498   -3.6723 O   0  0  0  0  0  0  0  0  0  0  0  0
   24.6065   72.8756   -2.7883 C   0  0  0  0  0  0  0  0  0  0  0  0
  1  4  1  0
  1 24  1  0
  1  2  1  1
  1  3  2  0
 25 28  1  0
 25 24  1  0
 25 26  1  1
 25 27  2  0
  6 11  1  0
  6 12  1  0
 29 36  1  0
 29 37  1  0
  9  7  1  6
  7 13  1  0
 10  8  1  6
  8 14  1  0
  4  5  1  0
 36 28  1  1
 33 30  1  1
 30 38  1  0
 34 31  1  1
 31 39  1  0
 35 32  1  1
 32 40  1  0
 41 43  1  0
 15 19  2  0
 42 43  2  0
 16 22  2  0
 12 17  1  1
 17 19  1  0
 17 20  1  0
 18 19  1  0
 18 22  1  0
 18 23  1  0
  9 10  1  0
  9 11  1  0
 10 12  1  0
 11  5  1  1
 33 34  1  0
 33 35  1  0
 34 36  1  0
 35 37  1  0
 37 43  1  6
 20 21  2  0
 21 22  1  0
M  CHG  3   2  -1  26  -1  41  -1
M  END
>  <COMPND>  (197) 
    udp_gluA.pdb 

>  <AUTHOR>  (197) 
    GENERATED BY OPEN BABEL 3.1.1

>  <MASTER>  (197) 
        0    0    0    0    0    0    0    0   56    0   56    0

>  <minimizedAffinity>  (197) 
-7.98138

>  <CNNscore>  (197) 
0.3870673478

>  <CNNaffinity>  (197) 
4.0706548691

>  <CNN_VS>  (197) 
1.5756175518

>  <CNNaffinity_variance>  (197) 
0.9812086821

$$$$
198
     RDKit          3D

 43 45  0  0  0  0  0  0  0  0999 V2000
   17.9774   69.9324   -2.4710 P   0  0  2  0  0  0  0  0  0  0  0  0
   17.3176   68.5298   -2.0060 O   0  0  0  0  0  0  0  0  0  0  0  0
   17.2084   71.1575   -2.0717 O   0  0  0  0  0  0  0  0  0  0  0  0
   18.2183   69.7407   -4.0595 O   0  0  0  0  0  0  0  0  0  0  0  0
   17.2646   69.0055   -4.8040 C   0  0  0  0  0  0  0  0  0  0  0  0
   17.2247   71.2110   -5.7589 O   0  0  0  0  0  0  0  0  0  0  0  0
   15.2950   70.1036   -7.7694 O   0  0  0  0  0  0  0  0  0  0  0  0
   17.6441   70.1373   -9.1539 O   0  0  0  0  0  0  0  0  0  0  0  0
   16.4225   69.4762   -7.1582 C   0  0  1  0  0  0  0  0  0  0  0  0
   17.7074   70.0177   -7.7481 C   0  0  2  0  0  0  0  0  0  0  0  0
   16.5051   69.9597   -5.7168 C   0  0  1  0  0  0  0  0  0  0  0  0
   17.8320   71.3622   -7.0518 C   0  0  2  0  0  0  0  0  0  0  0  0
   15.2216   69.8101   -8.6914 H   0  0  0  0  0  0  0  0  0  0  0  0
   17.5656   69.2549   -9.5502 H   0  0  0  0  0  0  0  0  0  0  0  0
   18.6539   74.0002   -6.4668 O   0  0  0  0  0  0  0  0  0  0  0  0
   23.1032   72.7979   -6.4187 O   0  0  0  0  0  0  0  0  0  0  0  0
   19.1989   71.7664   -6.8812 N   0  0  0  0  0  0  0  0  0  0  0  0
   20.8692   73.3990   -6.4444 N   0  0  0  0  0  0  0  0  0  0  0  0
   19.5045   73.1168   -6.5894 C   0  0  0  0  0  0  0  0  0  0  0  0
   20.2190   70.8305   -7.0012 C   0  0  0  0  0  0  0  0  0  0  0  0
   21.5152   71.1146   -6.8601 C   0  0  0  0  0  0  0  0  0  0  0  0
   21.9198   72.5026   -6.5552 C   0  0  0  0  0  0  0  0  0  0  0  0
   21.1068   74.3330   -6.2430 H   0  0  0  0  0  0  0  0  0  0  0  0
   19.4732   69.8486   -1.8640 O   0  0  0  0  0  0  0  0  0  0  0  0
   20.2913   70.8683   -0.9129 P   0  0  2  0  0  0  0  0  0  0  0  0
   21.0447   69.8815    0.1258 O   0  0  0  0  0  0  0  0  0  0  0  0
   19.4403   71.9193   -0.2609 O   0  0  0  0  0  0  0  0  0  0  0  0
   21.4689   71.4475   -1.8512 O   0  0  0  0  0  0  0  0  0  0  0  0
   23.1951   72.0945   -0.3643 O   0  0  0  0  0  0  0  0  0  0  0  0
   24.9319   72.8305   -4.0399 O   0  0  0  0  0  0  0  0  0  0  0  0
   22.1413   73.5437   -3.5512 O   0  0  0  0  0  0  0  0  0  0  0  0
   25.7150   70.4941   -2.4976 O   0  0  0  0  0  0  0  0  0  0  0  0
   24.0824   72.1563   -3.1115 C   0  0  2  0  0  0  0  0  0  0  0  0
   23.0615   73.1420   -2.5428 C   0  0  2  0  0  0  0  0  0  0  0  0
   24.9595   71.5928   -1.9911 C   0  0  1  0  0  0  0  0  0  0  0  0
   22.2865   72.5179   -1.3815 C   0  0  1  0  0  0  0  0  0  0  0  0
   24.1170   71.1050   -0.8160 C   0  0  1  0  0  0  0  0  0  0  0  0
   24.3963   73.1971   -4.7611 H   0  0  0  0  0  0  0  0  0  0  0  0
   22.6263   73.9403   -4.2913 H   0  0  0  0  0  0  0  0  0  0  0  0
   26.2556   70.7911   -3.2462 H   0  0  0  0  0  0  0  0  0  0  0  0
   24.2911   70.1644    1.3255 O   0  0  0  0  0  0  0  0  0  0  0  0
   26.1246   71.2501    0.5142 O   0  0  0  0  0  0  0  0  0  0  0  0
   24.9710   70.8681    0.3868 C   0  0  0  0  0  0  0  0  0  0  0  0
  1  4  1  0
  1 24  1  0
  1  2  1  1
  1  3  2  0
 25 28  1  0
 25 24  1  0
 25 26  1  1
 25 27  2  0
  6 11  1  0
  6 12  1  0
 29 36  1  0
 29 37  1  0
  9  7  1  6
  7 13  1  0
 10  8  1  6
  8 14  1  0
  4  5  1  0
 36 28  1  6
 33 30  1  6
 30 38  1  0
 34 31  1  6
 31 39  1  0
 35 32  1  6
 32 40  1  0
 41 43  1  0
 15 19  2  0
 42 43  2  0
 16 22  2  0
 12 17  1  1
 17 19  1  0
 17 20  1  0
 18 19  1  0
 18 22  1  0
 18 23  1  0
  9 10  1  0
  9 11  1  0
 10 12  1  0
 11  5  1  1
 33 34  1  0
 33 35  1  0
 34 36  1  0
 35 37  1  0
 37 43  1  1
 20 21  2  0
 21 22  1  0
M  CHG  3   2  -1  26  -1  41  -1
M  END
>  <COMPND>  (198) 
    udp_gluA.pdb 

>  <AUTHOR>  (198) 
    GENERATED BY OPEN BABEL 3.1.1

>  <MASTER>  (198) 
        0    0    0    0    0    0    0    0   56    0   56    0

>  <minimizedAffinity>  (198) 
-8.32299

>  <CNNscore>  (198) 
0.3868077099

>  <CNNaffinity>  (198) 
4.1031961441

>  <CNN_VS>  (198) 
1.5871479511

>  <CNNaffinity_variance>  (198) 
0.8966433406

$$$$
199
     RDKit          3D

 43 45  0  0  0  0  0  0  0  0999 V2000
   21.9343   72.1035   -4.4821 P   0  0  2  0  0  0  0  0  0  0  0  0
   23.3454   72.3757   -5.2261 O   0  0  0  0  0  0  0  0  0  0  0  0
   21.1558   73.3370   -4.1294 O   0  0  0  0  0  0  0  0  0  0  0  0
   22.3282   71.1426   -3.2414 O   0  0  0  0  0  0  0  0  0  0  0  0
   22.7686   71.7408   -2.0362 C   0  0  0  0  0  0  0  0  0  0  0  0
   24.1142   70.9121   -0.2250 O   0  0  0  0  0  0  0  0  0  0  0  0
   21.6799   69.3907    0.6415 O   0  0  0  0  0  0  0  0  0  0  0  0
   21.6822   71.5268    2.3365 O   0  0  0  0  0  0  0  0  0  0  0  0
   21.7728   70.6894    0.0556 C   0  0  1  0  0  0  0  0  0  0  0  0
   22.2885   71.6869    1.0711 C   0  0  2  0  0  0  0  0  0  0  0  0
   22.9005   70.6638   -0.9671 C   0  0  1  0  0  0  0  0  0  0  0  0
   23.7754   71.3760    1.0915 C   0  0  2  0  0  0  0  0  0  0  0  0
   20.9658   69.3823    1.2985 H   0  0  0  0  0  0  0  0  0  0  0  0
   20.7369   71.7365    2.2709 H   0  0  0  0  0  0  0  0  0  0  0  0
   26.2879   71.2817    2.3780 O   0  0  0  0  0  0  0  0  0  0  0  0
   26.7438   75.8656    2.2226 O   0  0  0  0  0  0  0  0  0  0  0  0
   24.5722   72.5298    1.3994 N   0  0  0  0  0  0  0  0  0  0  0  0
   26.5121   73.5649    2.3003 N   0  0  0  0  0  0  0  0  0  0  0  0
   25.8201   72.3731    2.0479 C   0  0  0  0  0  0  0  0  0  0  0  0
   24.1174   73.7978    1.0587 C   0  0  0  0  0  0  0  0  0  0  0  0
   24.7884   74.9246    1.3057 C   0  0  0  0  0  0  0  0  0  0  0  0
   26.1005   74.8488    1.9810 C   0  0  0  0  0  0  0  0  0  0  0  0
   27.3825   73.4814    2.7528 H   0  0  0  0  0  0  0  0  0  0  0  0
   21.1779   71.0968   -5.4956 O   0  0  0  0  0  0  0  0  0  0  0  0
   20.5539   71.3423   -6.9667 P   0  0  2  0  0  0  0  0  0  0  0  0
   21.0728   70.0600   -7.8073 O   0  0  0  0  0  0  0  0  0  0  0  0
   20.9133   72.6671   -7.5748 O   0  0  0  0  0  0  0  0  0  0  0  0
   18.9698   71.0966   -6.7855 O   0  0  0  0  0  0  0  0  0  0  0  0
   18.0681   69.3252   -5.4978 O   0  0  0  0  0  0  0  0  0  0  0  0
   14.9236   70.2118   -8.0265 O   0  0  0  0  0  0  0  0  0  0  0  0
   17.6618   70.1287   -9.0413 O   0  0  0  0  0  0  0  0  0  0  0  0
   14.8476   71.0655   -5.2487 O   0  0  0  0  0  0  0  0  0  0  0  0
   16.0801   70.4912   -7.2376 C   0  0  2  0  0  0  0  0  0  0  0  0
   17.2624   69.6712   -7.7545 C   0  0  2  0  0  0  0  0  0  0  0  0
   15.7655   70.1161   -5.7877 C   0  0  1  0  0  0  0  0  0  0  0  0
   18.4535   69.7669   -6.8001 C   0  0  1  0  0  0  0  0  0  0  0  0
   17.0256   70.1130   -4.9271 C   0  0  1  0  0  0  0  0  0  0  0  0
   15.1000   70.4423   -8.9523 H   0  0  0  0  0  0  0  0  0  0  0  0
   16.9107   70.0710   -9.6520 H   0  0  0  0  0  0  0  0  0  0  0  0
   14.0411   71.0775   -5.7875 H   0  0  0  0  0  0  0  0  0  0  0  0
   17.7498   68.5371   -3.3480 O   0  0  0  0  0  0  0  0  0  0  0  0
   15.8207   69.6615   -2.8861 O   0  0  0  0  0  0  0  0  0  0  0  0
   16.7727   69.4376   -3.6186 C   0  0  0  0  0  0  0  0  0  0  0  0
  1  4  1  0
  1 24  1  0
  1  2  1  6
  1  3  2  0
 25 28  1  0
 25 24  1  0
 25 26  1  6
 25 27  2  0
  6 11  1  0
  6 12  1  0
 29 36  1  0
 29 37  1  0
  9  7  1  1
  7 13  1  0
 10  8  1  1
  8 14  1  0
  4  5  1  0
 36 28  1  1
 33 30  1  6
 30 38  1  0
 34 31  1  6
 31 39  1  0
 35 32  1  1
 32 40  1  0
 41 43  1  0
 15 19  2  0
 42 43  2  0
 16 22  2  0
 12 17  1  6
 17 19  1  0
 17 20  1  0
 18 19  1  0
 18 22  1  0
 18 23  1  0
  9 10  1  0
  9 11  1  0
 10 12  1  0
 11  5  1  6
 33 34  1  0
 33 35  1  0
 34 36  1  0
 35 37  1  0
 37 43  1  1
 20 21  2  0
 21 22  1  0
M  CHG  3   2  -1  26  -1  41  -1
M  END
>  <COMPND>  (199) 
    udp_gluA.pdb 

>  <AUTHOR>  (199) 
    GENERATED BY OPEN BABEL 3.1.1

>  <MASTER>  (199) 
        0    0    0    0    0    0    0    0   56    0   56    0

>  <minimizedAffinity>  (199) 
-8.05329

>  <CNNscore>  (199) 
0.3824124634

>  <CNNaffinity>  (199) 
4.2147331238

>  <CNN_VS>  (199) 
1.6117664576

>  <CNNaffinity_variance>  (199) 
0.1200163364

$$$$
200
     RDKit          3D

 43 45  0  0  0  0  0  0  0  0999 V2000
   18.5407   74.3136   -1.7828 P   0  0  2  0  0  0  0  0  0  0  0  0
   19.3703   75.6349   -1.3530 O   0  0  0  0  0  0  0  0  0  0  0  0
   17.2495   74.1087   -1.0462 O   0  0  0  0  0  0  0  0  0  0  0  0
   19.6216   73.1167   -1.6523 O   0  0  0  0  0  0  0  0  0  0  0  0
   19.7905   72.4926   -0.3927 C   0  0  0  0  0  0  0  0  0  0  0  0
   21.1082   71.1417   -1.8815 O   0  0  0  0  0  0  0  0  0  0  0  0
   21.6901   69.4147    0.4997 O   0  0  0  0  0  0  0  0  0  0  0  0
   23.9604   70.9089    0.2784 O   0  0  0  0  0  0  0  0  0  0  0  0
   21.5347   70.8321    0.4278 C   0  0  1  0  0  0  0  0  0  0  0  0
   22.7556   71.4616   -0.2090 C   0  0  2  0  0  0  0  0  0  0  0  0
   20.4495   71.1344   -0.5965 C   0  0  1  0  0  0  0  0  0  0  0  0
   22.5305   71.1664   -1.6821 C   0  0  2  0  0  0  0  0  0  0  0  0
   22.3785   69.1970    1.1481 H   0  0  0  0  0  0  0  0  0  0  0  0
   24.0576   71.1246    1.2197 H   0  0  0  0  0  0  0  0  0  0  0  0
   25.1418   71.0449   -2.7513 O   0  0  0  0  0  0  0  0  0  0  0  0
   24.6273   75.0658   -4.9448 O   0  0  0  0  0  0  0  0  0  0  0  0
   23.1044   72.1679   -2.5356 N   0  0  0  0  0  0  0  0  0  0  0  0
   24.8834   73.0481   -3.8420 N   0  0  0  0  0  0  0  0  0  0  0  0
   24.4250   72.0111   -3.0188 C   0  0  0  0  0  0  0  0  0  0  0  0
   22.3614   73.2884   -2.8869 C   0  0  0  0  0  0  0  0  0  0  0  0
   22.8119   74.2684   -3.6726 C   0  0  0  0  0  0  0  0  0  0  0  0
   24.1822   74.1821   -4.2188 C   0  0  0  0  0  0  0  0  0  0  0  0
   25.8008   72.9622   -4.1889 H   0  0  0  0  0  0  0  0  0  0  0  0
   18.3832   74.4882   -3.3820 O   0  0  0  0  0  0  0  0  0  0  0  0
   17.0705   74.4874   -4.3256 P   0  0  2  0  0  0  0  0  0  0  0  0
   17.5800   75.2339   -5.6686 O   0  0  0  0  0  0  0  0  0  0  0  0
   15.8582   75.1089   -3.6947 O   0  0  0  0  0  0  0  0  0  0  0  0
   16.8818   72.9462   -4.7631 O   0  0  0  0  0  0  0  0  0  0  0  0
   18.1499   71.2415   -3.7165 O   0  0  0  0  0  0  0  0  0  0  0  0
   16.8691   69.3449   -7.1560 O   0  0  0  0  0  0  0  0  0  0  0  0
   17.8040   72.1111   -7.2507 O   0  0  0  0  0  0  0  0  0  0  0  0
   15.6221   68.7339   -4.6021 O   0  0  0  0  0  0  0  0  0  0  0  0
   16.7830   70.2586   -6.0625 C   0  0  2  0  0  0  0  0  0  0  0  0
   17.9471   71.2475   -6.1289 C   0  0  2  0  0  0  0  0  0  0  0  0
   16.8449   69.4500   -4.7647 C   0  0  1  0  0  0  0  0  0  0  0  0
   18.0206   72.0922   -4.8562 C   0  0  1  0  0  0  0  0  0  0  0  0
   17.0446   70.3558   -3.5530 C   0  0  1  0  0  0  0  0  0  0  0  0
   16.8318   69.8363   -7.9918 H   0  0  0  0  0  0  0  0  0  0  0  0
   17.7564   71.5817   -8.0618 H   0  0  0  0  0  0  0  0  0  0  0  0
   15.4830   68.1537   -5.3668 H   0  0  0  0  0  0  0  0  0  0  0  0
   17.0450   70.1865   -1.2135 O   0  0  0  0  0  0  0  0  0  0  0  0
   18.0102   68.4815   -2.3800 O   0  0  0  0  0  0  0  0  0  0  0  0
   17.4301   69.5565   -2.3510 C   0  0  0  0  0  0  0  0  0  0  0  0
  1  4  1  0
  1 24  1  0
  1  2  1  1
  1  3  2  0
 25 28  1  0
 25 24  1  0
 25 26  1  6
 25 27  2  0
  6 11  1  0
  6 12  1  0
 29 36  1  0
 29 37  1  0
  9  7  1  6
  7 13  1  0
 10  8  1  1
  8 14  1  0
  4  5  1  0
 36 28  1  1
 33 30  1  6
 30 38  1  0
 34 31  1  6
 31 39  1  0
 35 32  1  1
 32 40  1  0
 41 43  1  0
 15 19  2  0
 42 43  2  0
 16 22  2  0
 12 17  1  6
 17 19  1  0
 17 20  1  0
 18 19  1  0
 18 22  1  0
 18 23  1  0
  9 10  1  0
  9 11  1  0
 10 12  1  0
 11  5  1  1
 33 34  1  0
 33 35  1  0
 34 36  1  0
 35 37  1  0
 37 43  1  1
 20 21  2  0
 21 22  1  0
M  CHG  3   2  -1  26  -1  41  -1
M  END
