1
     RDKit          3D

 43 45  0  0  0  0  0  0  0  0999 V2000
   20.6830   70.1030   -1.9750 P   0  0  2  0  0  0  0  0  0  0  0  0
   22.2974   70.0829   -2.0847 O   0  0  0  0  0  0  0  0  0  0  0  0
   20.1255   69.4939   -0.7220 O   0  0  0  0  0  0  0  0  0  0  0  0
   20.1909   69.4308   -3.3621 O   0  0  0  0  0  0  0  0  0  0  0  0
   18.9373   68.7734   -3.3875 C   0  0  0  0  0  0  0  0  0  0  0  0
   18.0994   70.7841   -4.4037 O   0  0  0  0  0  0  0  0  0  0  0  0
   15.4736   70.1182   -3.1179 O   0  0  0  0  0  0  0  0  0  0  0  0
   15.0980   69.3074   -5.6942 O   0  0  0  0  0  0  0  0  0  0  0  0
   16.4537   69.2433   -3.6768 C   0  0  1  0  0  0  0  0  0  0  0  0
   16.4167   69.3124   -5.1887 C   0  0  2  0  0  0  0  0  0  0  0  0
   17.8288   69.8180   -3.3651 C   0  0  1  0  0  0  0  0  0  0  0  0
   17.1431   70.6182   -5.4627 C   0  0  2  0  0  0  0  0  0  0  0  0
   14.5865   69.7717   -3.3042 H   0  0  0  0  0  0  0  0  0  0  0  0
   14.6785   68.4552   -5.4947 H   0  0  0  0  0  0  0  0  0  0  0  0
   15.8751   70.7384   -7.9834 O   0  0  0  0  0  0  0  0  0  0  0  0
   19.9013   70.5669  -10.2205 O   0  0  0  0  0  0  0  0  0  0  0  0
   17.8359   70.6067   -6.7199 N   0  0  0  0  0  0  0  0  0  0  0  0
   17.8815   70.6519   -9.0952 N   0  0  0  0  0  0  0  0  0  0  0  0
   17.1045   70.6708   -7.9295 C   0  0  0  0  0  0  0  0  0  0  0  0
   19.2233   70.5342   -6.7466 C   0  0  0  0  0  0  0  0  0  0  0  0
   19.9501   70.5172   -7.8657 C   0  0  0  0  0  0  0  0  0  0  0  0
   19.2630   70.5801   -9.1723 C   0  0  0  0  0  0  0  0  0  0  0  0
   17.3944   70.6935   -9.9499 H   0  0  0  0  0  0  0  0  0  0  0  0
   20.3246   71.6656   -2.1813 O   0  0  0  0  0  0  0  0  0  0  0  0
   21.2698   72.9770   -2.2063 P   0  0  2  0  0  0  0  0  0  0  0  0
   20.3065   74.1153   -2.8362 O   0  0  0  0  0  0  0  0  0  0  0  0
   22.5658   72.7881   -2.9403 O   0  0  0  0  0  0  0  0  0  0  0  0
   21.4328   73.3937   -0.6563 O   0  0  0  0  0  0  0  0  0  0  0  0
   23.1950   74.6471    0.3095 O   0  0  0  0  0  0  0  0  0  0  0  0
   21.9624   72.3320    3.5015 O   0  0  0  0  0  0  0  0  0  0  0  0
   22.1933   71.1699    0.8312 O   0  0  0  0  0  0  0  0  0  0  0  0
   21.2412   75.1453    3.3749 O   0  0  0  0  0  0  0  0  0  0  0  0
   21.8057   73.0697    2.2894 C   0  0  2  0  0  0  0  0  0  0  0  0
   22.6828   72.4544    1.1987 C   0  0  2  0  0  0  0  0  0  0  0  0
   22.2270   74.5161    2.5583 C   0  0  1  0  0  0  0  0  0  0  0  0
   22.7195   73.3473   -0.0423 C   0  0  1  0  0  0  0  0  0  0  0  0
   22.3627   75.3073    1.2606 C   0  0  1  0  0  0  0  0  0  0  0  0
   21.7006   71.4094    3.3548 H   0  0  0  0  0  0  0  0  0  0  0  0
   22.1670   70.5982    1.6140 H   0  0  0  0  0  0  0  0  0  0  0  0
   21.1451   74.6514    4.2042 H   0  0  0  0  0  0  0  0  0  0  0  0
   23.5277   76.6668    2.7758 O   0  0  0  0  0  0  0  0  0  0  0  0
   23.2488   77.4696    0.6599 O   0  0  0  0  0  0  0  0  0  0  0  0
   23.0808   76.5959    1.4975 C   0  0  0  0  0  0  0  0  0  0  0  0
  1  4  1  0
  1 24  1  0
  1  2  1  1
  1  3  2  0
 25 28  1  0
 25 24  1  0
 25 26  1  6
 25 27  2  0
  6 11  1  0
  6 12  1  0
 29 36  1  0
 29 37  1  0
  9  7  1  1
  7 13  1  0
 10  8  1  1
  8 14  1  0
  4  5  1  0
 36 28  1  1
 33 30  1  1
 30 38  1  0
 34 31  1  6
 31 39  1  0
 35 32  1  1
 32 40  1  0
 41 43  1  0
 15 19  2  0
 42 43  2  0
 16 22  2  0
 12 17  1  6
 17 19  1  0
 17 20  1  0
 18 19  1  0
 18 22  1  0
 18 23  1  0
  9 10  1  0
  9 11  1  0
 10 12  1  0
 11  5  1  6
 33 34  1  0
 33 35  1  0
 34 36  1  0
 35 37  1  0
 37 43  1  1
 20 21  2  0
 21 22  1  0
M  CHG  3   2  -1  26  -1  41  -1
M  END
>  <COMPND>  (1) 
    udp_gluA.pdb 

>  <AUTHOR>  (1) 
    GENERATED BY OPEN BABEL 3.1.1

>  <MASTER>  (1) 
        0    0    0    0    0    0    0    0   56    0   56    0

>  <minimizedAffinity>  (1) 
-8.16233

>  <CNNscore>  (1) 
0.8900094628

>  <CNNaffinity>  (1) 
4.7485823631

>  <CNN_VS>  (1) 
4.2262830734

>  <CNNaffinity_variance>  (1) 
0.0519720018

$$$$
2
     RDKit          3D

 43 45  0  0  0  0  0  0  0  0999 V2000
   22.5788   72.7669   -3.7741 P   0  0  2  0  0  0  0  0  0  0  0  0
   23.5735   72.7284   -5.0500 O   0  0  0  0  0  0  0  0  0  0  0  0
   22.7120   73.9818   -2.9033 O   0  0  0  0  0  0  0  0  0  0  0  0
   22.8312   71.3464   -3.0417 O   0  0  0  0  0  0  0  0  0  0  0  0
   23.3771   71.3468   -1.7353 C   0  0  0  0  0  0  0  0  0  0  0  0
   22.5569   71.2121    0.5201 O   0  0  0  0  0  0  0  0  0  0  0  0
   20.2105   69.7329   -0.6191 O   0  0  0  0  0  0  0  0  0  0  0  0
   19.2119   72.2441   -0.2547 O   0  0  0  0  0  0  0  0  0  0  0  0
   20.9520   70.8180   -1.1769 C   0  0  1  0  0  0  0  0  0  0  0  0
   20.6012   72.1105   -0.4707 C   0  0  2  0  0  0  0  0  0  0  0  0
   22.4143   70.6331   -0.7951 C   0  0  1  0  0  0  0  0  0  0  0  0
   21.3850   71.9849    0.8246 C   0  0  2  0  0  0  0  0  0  0  0  0
   19.2728   69.8292   -0.8498 H   0  0  0  0  0  0  0  0  0  0  0  0
   18.7578   72.3208   -1.1090 H   0  0  0  0  0  0  0  0  0  0  0  0
   21.9756   72.4814    3.5414 O   0  0  0  0  0  0  0  0  0  0  0  0
   22.9249   76.9151    2.7138 O   0  0  0  0  0  0  0  0  0  0  0  0
   21.7889   73.2598    1.3465 N   0  0  0  0  0  0  0  0  0  0  0  0
   22.4468   74.6894    3.1268 N   0  0  0  0  0  0  0  0  0  0  0  0
   22.0620   73.4027    2.7274 C   0  0  0  0  0  0  0  0  0  0  0  0
   21.9126   74.3504    0.4943 C   0  0  0  0  0  0  0  0  0  0  0  0
   22.2805   75.5707    0.8897 C   0  0  0  0  0  0  0  0  0  0  0  0
   22.5832   75.8052    2.3168 C   0  0  0  0  0  0  0  0  0  0  0  0
   22.6402   74.8140    4.0841 H   0  0  0  0  0  0  0  0  0  0  0  0
   21.1206   72.5759   -4.4448 O   0  0  0  0  0  0  0  0  0  0  0  0
   19.8144   73.5284   -4.4342 P   0  0  2  0  0  0  0  0  0  0  0  0
   20.3919   74.9538   -4.9392 O   0  0  0  0  0  0  0  0  0  0  0  0
   19.1024   73.5825   -3.1136 O   0  0  0  0  0  0  0  0  0  0  0  0
   18.9108   72.9976   -5.6607 O   0  0  0  0  0  0  0  0  0  0  0  0
   19.6953   72.5374   -7.8475 O   0  0  0  0  0  0  0  0  0  0  0  0
   15.7083   73.3678   -8.5421 O   0  0  0  0  0  0  0  0  0  0  0  0
   17.2548   74.9916   -6.6696 O   0  0  0  0  0  0  0  0  0  0  0  0
   16.6581   70.6209   -8.5988 O   0  0  0  0  0  0  0  0  0  0  0  0
   16.8294   72.8875   -7.8001 C   0  0  2  0  0  0  0  0  0  0  0  0
   17.8133   74.0330   -7.5606 C   0  0  2  0  0  0  0  0  0  0  0  0
   17.4947   71.7760   -8.6149 C   0  0  1  0  0  0  0  0  0  0  0  0
   19.1261   73.5128   -6.9734 C   0  0  1  0  0  0  0  0  0  0  0  0
   18.8561   71.4004   -8.0371 C   0  0  1  0  0  0  0  0  0  0  0  0
   15.2696   74.0752   -8.0437 H   0  0  0  0  0  0  0  0  0  0  0  0
   16.4213   75.3257   -7.0358 H   0  0  0  0  0  0  0  0  0  0  0  0
   15.7882   70.8465   -8.9640 H   0  0  0  0  0  0  0  0  0  0  0  0
   19.0457   70.5850  -10.2281 O   0  0  0  0  0  0  0  0  0  0  0  0
   20.6561   69.9563   -8.7414 O   0  0  0  0  0  0  0  0  0  0  0  0
   19.6321   70.5684   -9.0055 C   0  0  0  0  0  0  0  0  0  0  0  0
  1  4  1  0
  1 24  1  0
  1  2  1  6
  1  3  2  0
 25 28  1  0
 25 24  1  0
 25 26  1  6
 25 27  2  0
  6 11  1  0
  6 12  1  0
 29 36  1  0
 29 37  1  0
  9  7  1  1
  7 13  1  0
 10  8  1  1
  8 14  1  0
  4  5  1  0
 36 28  1  1
 33 30  1  6
 30 38  1  0
 34 31  1  1
 31 39  1  0
 35 32  1  1
 32 40  1  0
 41 43  1  0
 15 19  2  0
 42 43  2  0
 16 22  2  0
 12 17  1  6
 17 19  1  0
 17 20  1  0
 18 19  1  0
 18 22  1  0
 18 23  1  0
  9 10  1  0
  9 11  1  0
 10 12  1  0
 11  5  1  6
 33 34  1  0
 33 35  1  0
 34 36  1  0
 35 37  1  0
 37 43  1  6
 20 21  2  0
 21 22  1  0
M  CHG  3   2  -1  26  -1  41  -1
M  END
>  <COMPND>  (2) 
    udp_gluA.pdb 

>  <AUTHOR>  (2) 
    GENERATED BY OPEN BABEL 3.1.1

>  <MASTER>  (2) 
        0    0    0    0    0    0    0    0   56    0   56    0

>  <minimizedAffinity>  (2) 
-7.67310

>  <CNNscore>  (2) 
0.5644365549

>  <CNNaffinity>  (2) 
4.2420816422

>  <CNN_VS>  (2) 
2.3943860531

>  <CNNaffinity_variance>  (2) 
0.0442262813

$$$$
3
     RDKit          3D

 43 45  0  0  0  0  0  0  0  0999 V2000
   22.5577   72.8787   -4.0698 P   0  0  2  0  0  0  0  0  0  0  0  0
   24.0687   72.7468   -4.6341 O   0  0  0  0  0  0  0  0  0  0  0  0
   22.2985   74.0959   -3.2315 O   0  0  0  0  0  0  0  0  0  0  0  0
   22.2877   71.4568   -3.3464 O   0  0  0  0  0  0  0  0  0  0  0  0
   23.1520   71.0562   -2.2990 C   0  0  0  0  0  0  0  0  0  0  0  0
   22.7233   70.9291    0.0627 O   0  0  0  0  0  0  0  0  0  0  0  0
   20.1497   69.5738   -0.6660 O   0  0  0  0  0  0  0  0  0  0  0  0
   19.3477   72.1229   -0.1229 O   0  0  0  0  0  0  0  0  0  0  0  0
   20.8356   70.6312   -1.3367 C   0  0  1  0  0  0  0  0  0  0  0  0
   20.6718   71.9289   -0.5741 C   0  0  2  0  0  0  0  0  0  0  0  0
   22.3312   70.3747   -1.2117 C   0  0  1  0  0  0  0  0  0  0  0  0
   21.6584   71.7505    0.5673 C   0  0  2  0  0  0  0  0  0  0  0  0
   19.1921   69.7158   -0.7323 H   0  0  0  0  0  0  0  0  0  0  0  0
   18.7586   72.2315   -0.8865 H   0  0  0  0  0  0  0  0  0  0  0  0
   21.8212   72.5329    3.2762 O   0  0  0  0  0  0  0  0  0  0  0  0
   23.7756   76.5619    2.1844 O   0  0  0  0  0  0  0  0  0  0  0  0
   22.2052   72.9986    1.0191 N   0  0  0  0  0  0  0  0  0  0  0  0
   22.7935   74.5393    2.7298 N   0  0  0  0  0  0  0  0  0  0  0  0
   22.2400   73.2945    2.4023 C   0  0  0  0  0  0  0  0  0  0  0  0
   22.7008   73.9128    0.0974 C   0  0  0  0  0  0  0  0  0  0  0  0
   23.2255   75.0953    0.4247 C   0  0  0  0  0  0  0  0  0  0  0  0
   23.2985   75.4820    1.8490 C   0  0  0  0  0  0  0  0  0  0  0  0
   22.8267   74.7685    3.6867 H   0  0  0  0  0  0  0  0  0  0  0  0
   21.6598   72.7806   -5.4104 O   0  0  0  0  0  0  0  0  0  0  0  0
   20.2408   73.4563   -5.7892 P   0  0  2  0  0  0  0  0  0  0  0  0
   20.6674   74.8893   -6.4095 O   0  0  0  0  0  0  0  0  0  0  0  0
   19.2740   73.5414   -4.6438 O   0  0  0  0  0  0  0  0  0  0  0  0
   19.7080   72.6077   -7.0535 O   0  0  0  0  0  0  0  0  0  0  0  0
   19.1893   70.5075   -6.0895 O   0  0  0  0  0  0  0  0  0  0  0  0
   17.6950   70.0682   -9.9160 O   0  0  0  0  0  0  0  0  0  0  0  0
   20.2771   71.3613   -9.4739 O   0  0  0  0  0  0  0  0  0  0  0  0
   15.8860   70.5226   -7.6862 O   0  0  0  0  0  0  0  0  0  0  0  0
   18.0442   70.7764   -8.7267 C   0  0  2  0  0  0  0  0  0  0  0  0
   19.5478   70.6515   -8.4794 C   0  0  2  0  0  0  0  0  0  0  0  0
   17.2608   70.1632   -7.5638 C   0  0  1  0  0  0  0  0  0  0  0  0
   19.9230   71.1984   -7.1014 C   0  0  1  0  0  0  0  0  0  0  0  0
   17.7779   70.6639   -6.2183 C   0  0  1  0  0  0  0  0  0  0  0  0
   18.1809   70.4405  -10.6687 H   0  0  0  0  0  0  0  0  0  0  0  0
   20.0437   71.0196  -10.3510 H   0  0  0  0  0  0  0  0  0  0  0  0
   15.5446   70.2098   -8.5386 H   0  0  0  0  0  0  0  0  0  0  0  0
   18.2554   69.2141   -4.4373 O   0  0  0  0  0  0  0  0  0  0  0  0
   16.0622   69.7104   -4.8153 O   0  0  0  0  0  0  0  0  0  0  0  0
   17.2444   69.8281   -5.1007 C   0  0  0  0  0  0  0  0  0  0  0  0
  1  4  1  0
  1 24  1  0
  1  2  1  6
  1  3  2  0
 25 28  1  0
 25 24  1  0
 25 26  1  6
 25 27  2  0
  6 11  1  0
  6 12  1  0
 29 36  1  0
 29 37  1  0
  9  7  1  1
  7 13  1  0
 10  8  1  1
  8 14  1  0
  4  5  1  0
 36 28  1  6
 33 30  1  6
 30 38  1  0
 34 31  1  6
 31 39  1  0
 35 32  1  6
 32 40  1  0
 41 43  1  0
 15 19  2  0
 42 43  2  0
 16 22  2  0
 12 17  1  6
 17 19  1  0
 17 20  1  0
 18 19  1  0
 18 22  1  0
 18 23  1  0
  9 10  1  0
  9 11  1  0
 10 12  1  0
 11  5  1  6
 33 34  1  0
 33 35  1  0
 34 36  1  0
 35 37  1  0
 37 43  1  1
 20 21  2  0
 21 22  1  0
M  CHG  3   2  -1  26  -1  41  -1
M  END
>  <COMPND>  (3) 
    udp_gluA.pdb 

>  <AUTHOR>  (3) 
    GENERATED BY OPEN BABEL 3.1.1

>  <MASTER>  (3) 
        0    0    0    0    0    0    0    0   56    0   56    0

>  <minimizedAffinity>  (3) 
-8.72555

>  <CNNscore>  (3) 
0.5302805901

>  <CNNaffinity>  (3) 
4.2789807320

>  <CNN_VS>  (3) 
2.2690603733

>  <CNNaffinity_variance>  (3) 
0.2182367295

$$$$
4
     RDKit          3D

 43 45  0  0  0  0  0  0  0  0999 V2000
   19.6207   69.7102   -2.4510 P   0  0  2  0  0  0  0  0  0  0  0  0
   19.8240   69.3409   -0.8885 O   0  0  0  0  0  0  0  0  0  0  0  0
   20.5116   68.9630   -3.3996 O   0  0  0  0  0  0  0  0  0  0  0  0
   19.7491   71.3226   -2.4891 O   0  0  0  0  0  0  0  0  0  0  0  0
   18.6168   72.0993   -2.1439 C   0  0  0  0  0  0  0  0  0  0  0  0
   20.0709   72.5687   -0.2884 O   0  0  0  0  0  0  0  0  0  0  0  0
   19.4507   75.4619   -0.7743 O   0  0  0  0  0  0  0  0  0  0  0  0
   21.9066   75.1776   -1.9249 O   0  0  0  0  0  0  0  0  0  0  0  0
   19.6117   74.4016   -1.7168 C   0  0  1  0  0  0  0  0  0  0  0  0
   21.0752   74.0382   -1.8521 C   0  0  2  0  0  0  0  0  0  0  0  0
   19.0246   73.1367   -1.1056 C   0  0  1  0  0  0  0  0  0  0  0  0
   21.3143   73.2191   -0.5953 C   0  0  2  0  0  0  0  0  0  0  0  0
   19.8185   76.2809   -1.1426 H   0  0  0  0  0  0  0  0  0  0  0  0
   21.7163   75.6650   -2.7423 H   0  0  0  0  0  0  0  0  0  0  0  0
   22.3769   71.6293    1.4832 O   0  0  0  0  0  0  0  0  0  0  0  0
   25.2111   69.4236   -1.4058 O   0  0  0  0  0  0  0  0  0  0  0  0
   22.3308   72.2217   -0.7763 N   0  0  0  0  0  0  0  0  0  0  0  0
   23.7882   70.5330    0.0425 N   0  0  0  0  0  0  0  0  0  0  0  0
   22.7957   71.4780    0.3340 C   0  0  0  0  0  0  0  0  0  0  0  0
   22.8550   71.9874   -2.0418 C   0  0  0  0  0  0  0  0  0  0  0  0
   23.8006   71.0831   -2.3040 C   0  0  0  0  0  0  0  0  0  0  0  0
   24.3412   70.2644   -1.1991 C   0  0  0  0  0  0  0  0  0  0  0  0
   24.1291   70.0044    0.7999 H   0  0  0  0  0  0  0  0  0  0  0  0
   18.0392   69.4661   -2.6788 O   0  0  0  0  0  0  0  0  0  0  0  0
   17.2235   68.9216   -3.9641 P   0  0  2  0  0  0  0  0  0  0  0  0
   15.8274   69.7375   -3.8889 O   0  0  0  0  0  0  0  0  0  0  0  0
   17.0661   67.4292   -4.0066 O   0  0  0  0  0  0  0  0  0  0  0  0
   17.9944   69.5499   -5.2343 O   0  0  0  0  0  0  0  0  0  0  0  0
   18.8876   71.7109   -5.6108 O   0  0  0  0  0  0  0  0  0  0  0  0
   17.5917   70.6663   -9.3920 O   0  0  0  0  0  0  0  0  0  0  0  0
   15.9518   70.0731   -7.0482 O   0  0  0  0  0  0  0  0  0  0  0  0
   20.4258   70.5941   -8.7491 O   0  0  0  0  0  0  0  0  0  0  0  0
   18.1155   70.4361   -8.0841 C   0  0  2  0  0  0  0  0  0  0  0  0
   17.1048   70.9069   -7.0379 C   0  0  2  0  0  0  0  0  0  0  0  0
   19.4223   71.2215   -7.9530 C   0  0  1  0  0  0  0  0  0  0  0  0
   17.7191   70.8902   -5.6375 C   0  0  1  0  0  0  0  0  0  0  0  0
   19.9038   71.2642   -6.5057 C   0  0  1  0  0  0  0  0  0  0  0  0
   16.7607   70.1769   -9.4985 H   0  0  0  0  0  0  0  0  0  0  0  0
   15.5571   70.0788   -7.9339 H   0  0  0  0  0  0  0  0  0  0  0  0
   20.1316   70.5604   -9.6728 H   0  0  0  0  0  0  0  0  0  0  0  0
   20.5450   73.3069   -5.5476 O   0  0  0  0  0  0  0  0  0  0  0  0
   22.0927   72.2270   -6.8273 O   0  0  0  0  0  0  0  0  0  0  0  0
   20.9767   72.2897   -6.3336 C   0  0  0  0  0  0  0  0  0  0  0  0
  1  4  1  0
  1 24  1  0
  1  2  1  1
  1  3  2  0
 25 28  1  0
 25 24  1  0
 25 26  1  1
 25 27  2  0
  6 11  1  0
  6 12  1  0
 29 36  1  0
 29 37  1  0
  9  7  1  1
  7 13  1  0
 10  8  1  1
  8 14  1  0
  4  5  1  0
 36 28  1  6
 33 30  1  6
 30 38  1  0
 34 31  1  1
 31 39  1  0
 35 32  1  6
 32 40  1  0
 41 43  1  0
 15 19  2  0
 42 43  2  0
 16 22  2  0
 12 17  1  6
 17 19  1  0
 17 20  1  0
 18 19  1  0
 18 22  1  0
 18 23  1  0
  9 10  1  0
  9 11  1  0
 10 12  1  0
 11  5  1  6
 33 34  1  0
 33 35  1  0
 34 36  1  0
 35 37  1  0
 37 43  1  6
 20 21  2  0
 21 22  1  0
M  CHG  3   2  -1  26  -1  41  -1
M  END
>  <COMPND>  (4) 
    udp_gluA.pdb 

>  <AUTHOR>  (4) 
    GENERATED BY OPEN BABEL 3.1.1

>  <MASTER>  (4) 
        0    0    0    0    0    0    0    0   56    0   56    0

>  <minimizedAffinity>  (4) 
-8.38348

>  <CNNscore>  (4) 
0.4860458970

>  <CNNaffinity>  (4) 
4.3012800217

>  <CNN_VS>  (4) 
2.0906195641

>  <CNNaffinity_variance>  (4) 
0.3137909770

$$$$
5
     RDKit          3D

 43 45  0  0  0  0  0  0  0  0999 V2000
   22.5893   71.2760   -3.2259 P   0  0  2  0  0  0  0  0  0  0  0  0
   22.3683   69.6939   -2.9672 O   0  0  0  0  0  0  0  0  0  0  0  0
   23.9961   71.6717   -3.5670 O   0  0  0  0  0  0  0  0  0  0  0  0
   21.9621   71.9764   -1.9091 O   0  0  0  0  0  0  0  0  0  0  0  0
   22.7406   72.0131   -0.7271 C   0  0  0  0  0  0  0  0  0  0  0  0
   22.4360   72.6032    1.5831 O   0  0  0  0  0  0  0  0  0  0  0  0
   19.5309   71.9900    1.1638 O   0  0  0  0  0  0  0  0  0  0  0  0
   19.5889   74.7135    1.0397 O   0  0  0  0  0  0  0  0  0  0  0  0
   20.4681   72.5831    0.2647 C   0  0  1  0  0  0  0  0  0  0  0  0
   20.7590   74.0105    0.6772 C   0  0  2  0  0  0  0  0  0  0  0  0
   21.8162   71.9085    0.4791 C   0  0  1  0  0  0  0  0  0  0  0  0
   21.7088   73.8137    1.8463 C   0  0  2  0  0  0  0  0  0  0  0  0
   18.6617   72.4049    1.0454 H   0  0  0  0  0  0  0  0  0  0  0  0
   19.0174   74.8131    0.2616 H   0  0  0  0  0  0  0  0  0  0  0  0
   22.8437   74.6394    4.2972 O   0  0  0  0  0  0  0  0  0  0  0  0
   25.2712   77.9837    2.2559 O   0  0  0  0  0  0  0  0  0  0  0  0
   22.6403   74.8973    1.9841 N   0  0  0  0  0  0  0  0  0  0  0  0
   24.0509   76.3049    3.2783 N   0  0  0  0  0  0  0  0  0  0  0  0
   23.1508   75.2313    3.2607 C   0  0  0  0  0  0  0  0  0  0  0  0
   23.0400   75.6150    0.8633 C   0  0  0  0  0  0  0  0  0  0  0  0
   23.8988   76.6358    0.8958 C   0  0  0  0  0  0  0  0  0  0  0  0
   24.4781   77.0494    2.1907 C   0  0  0  0  0  0  0  0  0  0  0  0
   24.4182   76.5573    4.1562 H   0  0  0  0  0  0  0  0  0  0  0  0
   21.4989   71.6123   -4.3707 O   0  0  0  0  0  0  0  0  0  0  0  0
   21.4124   72.8315   -5.4289 P   0  0  2  0  0  0  0  0  0  0  0  0
   22.8329   72.7524   -6.2011 O   0  0  0  0  0  0  0  0  0  0  0  0
   21.1198   74.1665   -4.8077 O   0  0  0  0  0  0  0  0  0  0  0  0
   20.3277   72.3492   -6.5213 O   0  0  0  0  0  0  0  0  0  0  0  0
   19.0577   70.4208   -5.9943 O   0  0  0  0  0  0  0  0  0  0  0  0
   18.2563   70.8807  -10.0210 O   0  0  0  0  0  0  0  0  0  0  0  0
   20.9668   71.2570   -8.9981 O   0  0  0  0  0  0  0  0  0  0  0  0
   16.2627   71.6283   -8.0418 O   0  0  0  0  0  0  0  0  0  0  0  0
   18.5603   71.3136   -8.6950 C   0  0  2  0  0  0  0  0  0  0  0  0
   19.8900   70.7042   -8.2500 C   0  0  2  0  0  0  0  0  0  0  0  0
   17.4283   70.8506   -7.7752 C   0  0  1  0  0  0  0  0  0  0  0  0
   20.1365   70.9562   -6.7618 C   0  0  1  0  0  0  0  0  0  0  0  0
   17.8011   71.0186   -6.3051 C   0  0  1  0  0  0  0  0  0  0  0  0
   18.9622   71.1636  -10.6235 H   0  0  0  0  0  0  0  0  0  0  0  0
   20.8168   71.1009   -9.9434 H   0  0  0  0  0  0  0  0  0  0  0  0
   16.0149   71.5303   -8.9744 H   0  0  0  0  0  0  0  0  0  0  0  0
   16.0150   69.5043   -6.1712 O   0  0  0  0  0  0  0  0  0  0  0  0
   16.8201   70.3392   -4.2081 O   0  0  0  0  0  0  0  0  0  0  0  0
   16.8488   70.2731   -5.4278 C   0  0  0  0  0  0  0  0  0  0  0  0
  1  4  1  0
  1 24  1  0
  1  2  1  1
  1  3  2  0
 25 28  1  0
 25 24  1  0
 25 26  1  6
 25 27  2  0
  6 11  1  0
  6 12  1  0
 29 36  1  0
 29 37  1  0
  9  7  1  1
  7 13  1  0
 10  8  1  1
  8 14  1  0
  4  5  1  0
 36 28  1  6
 33 30  1  6
 30 38  1  0
 34 31  1  6
 31 39  1  0
 35 32  1  6
 32 40  1  0
 41 43  1  0
 15 19  2  0
 42 43  2  0
 16 22  2  0
 12 17  1  6
 17 19  1  0
 17 20  1  0
 18 19  1  0
 18 22  1  0
 18 23  1  0
  9 10  1  0
  9 11  1  0
 10 12  1  0
 11  5  1  6
 33 34  1  0
 33 35  1  0
 34 36  1  0
 35 37  1  0
 37 43  1  1
 20 21  2  0
 21 22  1  0
M  CHG  3   2  -1  26  -1  41  -1
M  END
>  <COMPND>  (5) 
    udp_gluA.pdb 

>  <AUTHOR>  (5) 
    GENERATED BY OPEN BABEL 3.1.1

>  <MASTER>  (5) 
        0    0    0    0    0    0    0    0   56    0   56    0

>  <minimizedAffinity>  (5) 
-7.96427

>  <CNNscore>  (5) 
0.4658183455

>  <CNNaffinity>  (5) 
4.2183318138

>  <CNN_VS>  (5) 
1.9649763107

>  <CNNaffinity_variance>  (5) 
0.0249138623

$$$$
6
     RDKit          3D

 43 45  0  0  0  0  0  0  0  0999 V2000
   17.7235   74.8783   -3.8648 P   0  0  2  0  0  0  0  0  0  0  0  0
   16.1401   75.1954   -3.7598 O   0  0  0  0  0  0  0  0  0  0  0  0
   18.6006   76.0832   -4.0406 O   0  0  0  0  0  0  0  0  0  0  0  0
   17.8197   73.7628   -5.0328 O   0  0  0  0  0  0  0  0  0  0  0  0
   17.7101   74.1834   -6.3802 C   0  0  0  0  0  0  0  0  0  0  0  0
   19.1994   72.2972   -6.4222 O   0  0  0  0  0  0  0  0  0  0  0  0
   19.0090   72.4494   -9.4108 O   0  0  0  0  0  0  0  0  0  0  0  0
   17.3094   70.4036   -8.8089 O   0  0  0  0  0  0  0  0  0  0  0  0
   18.0052   72.7020   -8.4274 C   0  0  1  0  0  0  0  0  0  0  0  0
   17.5179   71.3993   -7.8292 C   0  0  2  0  0  0  0  0  0  0  0  0
   18.6744   73.3699   -7.2339 C   0  0  1  0  0  0  0  0  0  0  0  0
   18.6448   71.0508   -6.8719 C   0  0  2  0  0  0  0  0  0  0  0  0
   18.6052   72.0227  -10.1832 H   0  0  0  0  0  0  0  0  0  0  0  0
   16.5824   70.6721   -9.3931 H   0  0  0  0  0  0  0  0  0  0  0  0
   20.3425   69.7467   -5.0297 O   0  0  0  0  0  0  0  0  0  0  0  0
   16.7745   68.2228   -2.5415 O   0  0  0  0  0  0  0  0  0  0  0  0
   18.1861   70.3060   -5.7335 N   0  0  0  0  0  0  0  0  0  0  0  0
   18.5638   68.9881   -3.7928 N   0  0  0  0  0  0  0  0  0  0  0  0
   19.1218   69.6889   -4.8700 C   0  0  0  0  0  0  0  0  0  0  0  0
   16.8242   70.1941   -5.4808 C   0  0  0  0  0  0  0  0  0  0  0  0
   16.3074   69.5228   -4.4498 C   0  0  0  0  0  0  0  0  0  0  0  0
   17.2168   68.8481   -3.5005 C   0  0  0  0  0  0  0  0  0  0  0  0
   19.1955   68.5482   -3.1789 H   0  0  0  0  0  0  0  0  0  0  0  0
   18.0126   74.0251   -2.5227 O   0  0  0  0  0  0  0  0  0  0  0  0
   18.0095   74.4617   -0.9661 P   0  0  2  0  0  0  0  0  0  0  0  0
   16.7819   73.6086   -0.3451 O   0  0  0  0  0  0  0  0  0  0  0  0
   17.9090   75.9428   -0.7422 O   0  0  0  0  0  0  0  0  0  0  0  0
   19.3337   73.7793   -0.3470 O   0  0  0  0  0  0  0  0  0  0  0  0
   19.5549   71.4226   -0.2702 O   0  0  0  0  0  0  0  0  0  0  0  0
   22.3758   72.6223    2.4994 O   0  0  0  0  0  0  0  0  0  0  0  0
   19.7570   73.9131    2.3987 O   0  0  0  0  0  0  0  0  0  0  0  0
   23.2101   71.7097   -0.1316 O   0  0  0  0  0  0  0  0  0  0  0  0
   21.5799   72.7307    1.3193 C   0  0  2  0  0  0  0  0  0  0  0  0
   20.0988   72.7225    1.6984 C   0  0  2  0  0  0  0  0  0  0  0  0
   21.9053   71.5374    0.4181 C   0  0  1  0  0  0  0  0  0  0  0  0
   19.2164   72.6054    0.4548 C   0  0  1  0  0  0  0  0  0  0  0  0
   20.9052   71.4158   -0.7280 C   0  0  1  0  0  0  0  0  0  0  0  0
   22.1860   73.3703    3.0875 H   0  0  0  0  0  0  0  0  0  0  0  0
   20.3133   73.9939    3.1889 H   0  0  0  0  0  0  0  0  0  0  0  0
   23.8561   71.7885    0.5876 H   0  0  0  0  0  0  0  0  0  0  0  0
   19.9966   69.2767   -1.0443 O   0  0  0  0  0  0  0  0  0  0  0  0
   21.9227   69.7644   -2.1629 O   0  0  0  0  0  0  0  0  0  0  0  0
   21.0256   70.0859   -1.3982 C   0  0  0  0  0  0  0  0  0  0  0  0
  1  4  1  0
  1 24  1  0
  1  2  1  1
  1  3  2  0
 25 28  1  0
 25 24  1  0
 25 26  1  1
 25 27  2  0
  6 11  1  0
  6 12  1  0
 29 36  1  0
 29 37  1  0
  9  7  1  6
  7 13  1  0
 10  8  1  6
  8 14  1  0
  4  5  1  0
 36 28  1  6
 33 30  1  1
 30 38  1  0
 34 31  1  6
 31 39  1  0
 35 32  1  6
 32 40  1  0
 41 43  1  0
 15 19  2  0
 42 43  2  0
 16 22  2  0
 12 17  1  1
 17 19  1  0
 17 20  1  0
 18 19  1  0
 18 22  1  0
 18 23  1  0
  9 10  1  0
  9 11  1  0
 10 12  1  0
 11  5  1  1
 33 34  1  0
 33 35  1  0
 34 36  1  0
 35 37  1  0
 37 43  1  1
 20 21  2  0
 21 22  1  0
M  CHG  3   2  -1  26  -1  41  -1
M  END
>  <COMPND>  (6) 
    udp_gluA.pdb 

>  <AUTHOR>  (6) 
    GENERATED BY OPEN BABEL 3.1.1

>  <MASTER>  (6) 
        0    0    0    0    0    0    0    0   56    0   56    0

>  <minimizedAffinity>  (6) 
-7.30168

>  <CNNscore>  (6) 
0.4428788722

>  <CNNaffinity>  (6) 
4.1705493927

>  <CNN_VS>  (6) 
1.8470481634

>  <CNNaffinity_variance>  (6) 
0.5370215774

$$$$
7
     RDKit          3D

 43 45  0  0  0  0  0  0  0  0999 V2000
   18.0637   75.3384   -3.0463 P   0  0  2  0  0  0  0  0  0  0  0  0
   16.9789   74.2560   -3.5665 O   0  0  0  0  0  0  0  0  0  0  0  0
   17.7897   76.7563   -3.4542 O   0  0  0  0  0  0  0  0  0  0  0  0
   19.4826   74.7298   -3.5302 O   0  0  0  0  0  0  0  0  0  0  0  0
   19.7534   73.3632   -3.2781 C   0  0  0  0  0  0  0  0  0  0  0  0
   19.8232   71.3940   -4.6548 O   0  0  0  0  0  0  0  0  0  0  0  0
   20.9278   73.1647   -6.8079 O   0  0  0  0  0  0  0  0  0  0  0  0
   18.3096   72.9136   -7.5277 O   0  0  0  0  0  0  0  0  0  0  0  0
   19.9460   73.4565   -5.8132 C   0  0  1  0  0  0  0  0  0  0  0  0
   18.6337   72.7852   -6.1592 C   0  0  2  0  0  0  0  0  0  0  0  0
   20.3452   72.7349   -4.5333 C   0  0  1  0  0  0  0  0  0  0  0  0
   18.8995   71.3455   -5.7537 C   0  0  2  0  0  0  0  0  0  0  0  0
   20.6941   73.6150   -7.6352 H   0  0  0  0  0  0  0  0  0  0  0  0
   18.1494   73.8479   -7.7358 H   0  0  0  0  0  0  0  0  0  0  0  0
   17.0851   70.0726   -7.5042 O   0  0  0  0  0  0  0  0  0  0  0  0
   14.3583   68.7699   -4.0241 O   0  0  0  0  0  0  0  0  0  0  0  0
   17.7073   70.6661   -5.3318 N   0  0  0  0  0  0  0  0  0  0  0  0
   15.7282   69.4258   -5.7693 N   0  0  0  0  0  0  0  0  0  0  0  0
   16.8632   70.0596   -6.2920 C   0  0  0  0  0  0  0  0  0  0  0  0
   17.3854   70.6039   -3.9815 C   0  0  0  0  0  0  0  0  0  0  0  0
   16.3000   69.9961   -3.4984 C   0  0  0  0  0  0  0  0  0  0  0  0
   15.3655   69.3382   -4.4350 C   0  0  0  0  0  0  0  0  0  0  0  0
   15.1243   68.9981   -6.4187 H   0  0  0  0  0  0  0  0  0  0  0  0
   18.0873   75.0897   -1.4493 O   0  0  0  0  0  0  0  0  0  0  0  0
   19.0602   75.6748   -0.2983 P   0  0  2  0  0  0  0  0  0  0  0  0
   18.0664   75.8632    0.9655 O   0  0  0  0  0  0  0  0  0  0  0  0
   19.8019   76.9191   -0.6927 O   0  0  0  0  0  0  0  0  0  0  0  0
   20.0056   74.4326    0.1089 O   0  0  0  0  0  0  0  0  0  0  0  0
   19.5398   72.1109    0.0646 O   0  0  0  0  0  0  0  0  0  0  0  0
   22.1738   72.3795    3.2360 O   0  0  0  0  0  0  0  0  0  0  0  0
   20.0657   74.3720    2.8889 O   0  0  0  0  0  0  0  0  0  0  0  0
   23.0718   71.3293    0.6784 O   0  0  0  0  0  0  0  0  0  0  0  0
   21.6118   72.7412    1.9745 C   0  0  2  0  0  0  0  0  0  0  0  0
   20.1510   73.1509    2.1636 C   0  0  2  0  0  0  0  0  0  0  0  0
   21.7084   71.5269    1.0482 C   0  0  1  0  0  0  0  0  0  0  0  0
   19.4521   73.3232    0.8143 C   0  0  1  0  0  0  0  0  0  0  0  0
   20.8831   71.7265   -0.2197 C   0  0  1  0  0  0  0  0  0  0  0  0
   22.1233   73.1359    3.8415 H   0  0  0  0  0  0  0  0  0  0  0  0
   20.5075   74.2700    3.7462 H   0  0  0  0  0  0  0  0  0  0  0  0
   23.6080   71.2012    1.4764 H   0  0  0  0  0  0  0  0  0  0  0  0
   21.6352   70.3219   -1.9411 O   0  0  0  0  0  0  0  0  0  0  0  0
   19.8686   69.5904   -0.6989 O   0  0  0  0  0  0  0  0  0  0  0  0
   20.7147   70.4349   -0.9518 C   0  0  0  0  0  0  0  0  0  0  0  0
  1  4  1  0
  1 24  1  0
  1  2  1  6
  1  3  2  0
 25 28  1  0
 25 24  1  0
 25 26  1  1
 25 27  2  0
  6 11  1  0
  6 12  1  0
 29 36  1  0
 29 37  1  0
  9  7  1  6
  7 13  1  0
 10  8  1  6
  8 14  1  0
  4  5  1  0
 36 28  1  6
 33 30  1  1
 30 38  1  0
 34 31  1  6
 31 39  1  0
 35 32  1  6
 32 40  1  0
 41 43  1  0
 15 19  2  0
 42 43  2  0
 16 22  2  0
 12 17  1  1
 17 19  1  0
 17 20  1  0
 18 19  1  0
 18 22  1  0
 18 23  1  0
  9 10  1  0
  9 11  1  0
 10 12  1  0
 11  5  1  1
 33 34  1  0
 33 35  1  0
 34 36  1  0
 35 37  1  0
 37 43  1  1
 20 21  2  0
 21 22  1  0
M  CHG  3   2  -1  26  -1  41  -1
M  END
>  <COMPND>  (7) 
    udp_gluA.pdb 

>  <AUTHOR>  (7) 
    GENERATED BY OPEN BABEL 3.1.1

>  <MASTER>  (7) 
        0    0    0    0    0    0    0    0   56    0   56    0

>  <minimizedAffinity>  (7) 
-6.59491

>  <CNNscore>  (7) 
0.4396426678

>  <CNNaffinity>  (7) 
4.0000653267

>  <CNN_VS>  (7) 
1.7585994005

>  <CNNaffinity_variance>  (7) 
0.4296483994

$$$$
8
     RDKit          3D

 43 45  0  0  0  0  0  0  0  0999 V2000
   19.5796   69.7540   -2.0147 P   0  0  2  0  0  0  0  0  0  0  0  0
   18.7631   71.1503   -2.0649 O   0  0  0  0  0  0  0  0  0  0  0  0
   19.9172   69.2667   -0.6362 O   0  0  0  0  0  0  0  0  0  0  0  0
   20.8388   70.0046   -2.9993 O   0  0  0  0  0  0  0  0  0  0  0  0
   21.2452   71.3372   -3.2514 C   0  0  0  0  0  0  0  0  0  0  0  0
   22.9439   72.5786   -2.0890 O   0  0  0  0  0  0  0  0  0  0  0  0
   24.7238   70.2083   -2.5422 O   0  0  0  0  0  0  0  0  0  0  0  0
   23.9508   69.8855    0.0529 O   0  0  0  0  0  0  0  0  0  0  0  0
   23.3231   70.2473   -2.2682 C   0  0  1  0  0  0  0  0  0  0  0  0
   23.0831   70.5874   -0.8125 C   0  0  2  0  0  0  0  0  0  0  0  0
   22.7389   71.4602   -2.9793 C   0  0  1  0  0  0  0  0  0  0  0  0
   23.3265   72.0869   -0.7947 C   0  0  2  0  0  0  0  0  0  0  0  0
   25.1192   69.4414   -2.0981 H   0  0  0  0  0  0  0  0  0  0  0  0
   23.7559   68.9359    0.0057 H   0  0  0  0  0  0  0  0  0  0  0  0
   23.6964   74.7780   -0.0217 O   0  0  0  0  0  0  0  0  0  0  0  0
   20.2799   74.5521    3.0638 O   0  0  0  0  0  0  0  0  0  0  0  0
   22.5476   72.7566    0.2081 N   0  0  0  0  0  0  0  0  0  0  0  0
   21.9951   74.6627    1.5150 N   0  0  0  0  0  0  0  0  0  0  0  0
   22.8146   74.1103    0.5219 C   0  0  0  0  0  0  0  0  0  0  0  0
   21.5320   72.0749    0.8675 C   0  0  0  0  0  0  0  0  0  0  0  0
   20.7592   72.6149    1.8119 C   0  0  0  0  0  0  0  0  0  0  0  0
   20.9732   74.0246    2.1994 C   0  0  0  0  0  0  0  0  0  0  0  0
   22.1634   75.6033    1.7520 H   0  0  0  0  0  0  0  0  0  0  0  0
   18.6418   68.7542   -2.8714 O   0  0  0  0  0  0  0  0  0  0  0  0
   17.5588   69.0506   -4.0345 P   0  0  2  0  0  0  0  0  0  0  0  0
   16.5894   70.1597   -3.3634 O   0  0  0  0  0  0  0  0  0  0  0  0
   16.8455   67.8291   -4.5375 O   0  0  0  0  0  0  0  0  0  0  0  0
   18.3811   69.8581   -5.1633 O   0  0  0  0  0  0  0  0  0  0  0  0
   18.9526   72.0962   -5.6862 O   0  0  0  0  0  0  0  0  0  0  0  0
   17.6398   70.6879   -9.3415 O   0  0  0  0  0  0  0  0  0  0  0  0
   16.2054   70.0055   -6.8897 O   0  0  0  0  0  0  0  0  0  0  0  0
   20.4837   71.0307   -8.8458 O   0  0  0  0  0  0  0  0  0  0  0  0
   18.2494   70.5998   -8.0536 C   0  0  2  0  0  0  0  0  0  0  0  0
   17.2329   70.9858   -6.9788 C   0  0  2  0  0  0  0  0  0  0  0  0
   19.4413   71.5593   -8.0280 C   0  0  1  0  0  0  0  0  0  0  0  0
   17.9072   71.1260   -5.6133 C   0  0  1  0  0  0  0  0  0  0  0  0
   19.9783   71.7430   -6.6115 C   0  0  1  0  0  0  0  0  0  0  0  0
   16.8794   70.0865   -9.3813 H   0  0  0  0  0  0  0  0  0  0  0  0
   15.7734   69.9112   -7.7527 H   0  0  0  0  0  0  0  0  0  0  0  0
   20.1548   70.9089   -9.7501 H   0  0  0  0  0  0  0  0  0  0  0  0
   22.1967   72.5036   -6.6532 O   0  0  0  0  0  0  0  0  0  0  0  0
   20.5627   74.0753   -6.4111 O   0  0  0  0  0  0  0  0  0  0  0  0
   20.9078   72.9107   -6.5439 C   0  0  0  0  0  0  0  0  0  0  0  0
  1  4  1  0
  1 24  1  0
  1  2  1  1
  1  3  2  0
 25 28  1  0
 25 24  1  0
 25 26  1  1
 25 27  2  0
  6 11  1  0
  6 12  1  0
 29 36  1  0
 29 37  1  0
  9  7  1  1
  7 13  1  0
 10  8  1  1
  8 14  1  0
  4  5  1  0
 36 28  1  6
 33 30  1  6
 30 38  1  0
 34 31  1  1
 31 39  1  0
 35 32  1  6
 32 40  1  0
 41 43  1  0
 15 19  2  0
 42 43  2  0
 16 22  2  0
 12 17  1  1
 17 19  1  0
 17 20  1  0
 18 19  1  0
 18 22  1  0
 18 23  1  0
  9 10  1  0
  9 11  1  0
 10 12  1  0
 11  5  1  1
 33 34  1  0
 33 35  1  0
 34 36  1  0
 35 37  1  0
 37 43  1  6
 20 21  2  0
 21 22  1  0
M  CHG  3   2  -1  26  -1  41  -1
M  END
>  <COMPND>  (8) 
    udp_gluA.pdb 

>  <AUTHOR>  (8) 
    GENERATED BY OPEN BABEL 3.1.1

>  <MASTER>  (8) 
        0    0    0    0    0    0    0    0   56    0   56    0

>  <minimizedAffinity>  (8) 
-8.88929

>  <CNNscore>  (8) 
0.4191479087

>  <CNNaffinity>  (8) 
4.2609891891

>  <CNN_VS>  (8) 
1.7859847546

>  <CNNaffinity_variance>  (8) 
0.1996420920

$$$$
9
     RDKit          3D

 43 45  0  0  0  0  0  0  0  0999 V2000
   22.4674   72.7842   -4.5357 P   0  0  2  0  0  0  0  0  0  0  0  0
   23.6281   73.8699   -4.8405 O   0  0  0  0  0  0  0  0  0  0  0  0
   22.0049   71.9995   -5.7283 O   0  0  0  0  0  0  0  0  0  0  0  0
   21.3261   73.6397   -3.7719 O   0  0  0  0  0  0  0  0  0  0  0  0
   20.2853   74.2155   -4.5399 C   0  0  0  0  0  0  0  0  0  0  0  0
   18.0453   73.4960   -5.0318 O   0  0  0  0  0  0  0  0  0  0  0  0
   17.9220   72.5544   -2.1876 O   0  0  0  0  0  0  0  0  0  0  0  0
   18.3840   70.2441   -3.5607 O   0  0  0  0  0  0  0  0  0  0  0  0
   19.0233   72.5436   -3.0961 C   0  0  1  0  0  0  0  0  0  0  0  0
   18.8388   71.4536   -4.1306 C   0  0  2  0  0  0  0  0  0  0  0  0
   18.9444   73.8051   -3.9450 C   0  0  1  0  0  0  0  0  0  0  0  0
   17.8195   72.0779   -5.0682 C   0  0  2  0  0  0  0  0  0  0  0  0
   17.9510   71.7577   -1.6343 H   0  0  0  0  0  0  0  0  0  0  0  0
   19.0682   69.8865   -2.9725 H   0  0  0  0  0  0  0  0  0  0  0  0
   16.5908   69.7535   -6.0997 O   0  0  0  0  0  0  0  0  0  0  0  0
   18.4431   70.4042  -10.2698 O   0  0  0  0  0  0  0  0  0  0  0  0
   17.9637   71.6167   -6.4200 N   0  0  0  0  0  0  0  0  0  0  0  0
   17.5153   70.0793   -8.1754 N   0  0  0  0  0  0  0  0  0  0  0  0
   17.3040   70.4365   -6.8372 C   0  0  0  0  0  0  0  0  0  0  0  0
   18.7493   72.3309   -7.3164 C   0  0  0  0  0  0  0  0  0  0  0  0
   18.9411   71.9780   -8.5890 C   0  0  0  0  0  0  0  0  0  0  0  0
   18.2881   70.7569   -9.1046 C   0  0  0  0  0  0  0  0  0  0  0  0
   17.0680   69.2600   -8.4885 H   0  0  0  0  0  0  0  0  0  0  0  0
   23.1075   71.8919   -3.3496 O   0  0  0  0  0  0  0  0  0  0  0  0
   22.4559   70.7465   -2.4131 P   0  0  2  0  0  0  0  0  0  0  0  0
   23.7489   69.9776   -1.8153 O   0  0  0  0  0  0  0  0  0  0  0  0
   21.4785   69.8540   -3.1217 O   0  0  0  0  0  0  0  0  0  0  0  0
   21.8408   71.5474   -1.1550 O   0  0  0  0  0  0  0  0  0  0  0  0
   21.9894   73.8583   -0.6582 O   0  0  0  0  0  0  0  0  0  0  0  0
   21.7560   72.1999    3.1184 O   0  0  0  0  0  0  0  0  0  0  0  0
   23.4202   70.9652    1.0591 O   0  0  0  0  0  0  0  0  0  0  0  0
   19.4404   73.5211    1.9593 O   0  0  0  0  0  0  0  0  0  0  0  0
   21.4983   72.2917    1.7173 C   0  0  2  0  0  0  0  0  0  0  0  0
   22.8202   72.2509    0.9501 C   0  0  2  0  0  0  0  0  0  0  0  0
   20.7717   73.6129    1.4556 C   0  0  1  0  0  0  0  0  0  0  0  0
   22.6049   72.5762   -0.5286 C   0  0  1  0  0  0  0  0  0  0  0  0
   20.7083   73.9279   -0.0361 C   0  0  1  0  0  0  0  0  0  0  0  0
   22.2174   71.3679    3.3086 H   0  0  0  0  0  0  0  0  0  0  0  0
   23.5594   70.7522    1.9949 H   0  0  0  0  0  0  0  0  0  0  0  0
   19.4667   73.3208    2.9080 H   0  0  0  0  0  0  0  0  0  0  0  0
   20.4854   76.0825    0.8635 O   0  0  0  0  0  0  0  0  0  0  0  0
   19.8672   75.7948   -1.3123 O   0  0  0  0  0  0  0  0  0  0  0  0
   20.3025   75.3480   -0.2616 C   0  0  0  0  0  0  0  0  0  0  0  0
  1  4  1  0
  1 24  1  0
  1  2  1  6
  1  3  2  0
 25 28  1  0
 25 24  1  0
 25 26  1  1
 25 27  2  0
  6 11  1  0
  6 12  1  0
 29 36  1  0
 29 37  1  0
  9  7  1  1
  7 13  1  0
 10  8  1  1
  8 14  1  0
  4  5  1  0
 36 28  1  1
 33 30  1  1
 30 38  1  0
 34 31  1  6
 31 39  1  0
 35 32  1  6
 32 40  1  0
 41 43  1  0
 15 19  2  0
 42 43  2  0
 16 22  2  0
 12 17  1  6
 17 19  1  0
 17 20  1  0
 18 19  1  0
 18 22  1  0
 18 23  1  0
  9 10  1  0
  9 11  1  0
 10 12  1  0
 11  5  1  6
 33 34  1  0
 33 35  1  0
 34 36  1  0
 35 37  1  0
 37 43  1  1
 20 21  2  0
 21 22  1  0
M  CHG  3   2  -1  26  -1  41  -1
M  END
>  <COMPND>  (9) 
    udp_gluA.pdb 

>  <AUTHOR>  (9) 
    GENERATED BY OPEN BABEL 3.1.1

>  <MASTER>  (9) 
        0    0    0    0    0    0    0    0   56    0   56    0

>  <minimizedAffinity>  (9) 
-6.99337

>  <CNNscore>  (9) 
0.4085397422

>  <CNNaffinity>  (9) 
4.2096548080

>  <CNN_VS>  (9) 
1.7198113203

>  <CNNaffinity_variance>  (9) 
0.0424125381

$$$$
10
     RDKit          3D

 43 45  0  0  0  0  0  0  0  0999 V2000
   18.4138   75.1879   -4.5862 P   0  0  2  0  0  0  0  0  0  0  0  0
   16.8687   75.4348   -4.1729 O   0  0  0  0  0  0  0  0  0  0  0  0
   19.3758   76.2280   -4.0918 O   0  0  0  0  0  0  0  0  0  0  0  0
   18.3594   74.9874   -6.1909 O   0  0  0  0  0  0  0  0  0  0  0  0
   17.7836   73.8005   -6.7048 C   0  0  0  0  0  0  0  0  0  0  0  0
   19.3218   71.9844   -6.3682 O   0  0  0  0  0  0  0  0  0  0  0  0
   19.5290   71.8513   -9.3566 O   0  0  0  0  0  0  0  0  0  0  0  0
   17.8272   69.7985   -8.7853 O   0  0  0  0  0  0  0  0  0  0  0  0
   18.3953   72.1502   -8.5419 C   0  0  1  0  0  0  0  0  0  0  0  0
   17.8721   70.8886   -7.8885 C   0  0  2  0  0  0  0  0  0  0  0  0
   18.8778   72.9538   -7.3420 C   0  0  1  0  0  0  0  0  0  0  0  0
   18.8707   70.6790   -6.7629 C   0  0  2  0  0  0  0  0  0  0  0  0
   19.2455   71.3380  -10.1299 H   0  0  0  0  0  0  0  0  0  0  0  0
   17.1772   69.9803   -9.4828 H   0  0  0  0  0  0  0  0  0  0  0  0
   20.3415   69.6692   -4.5735 O   0  0  0  0  0  0  0  0  0  0  0  0
   16.5244   68.1832   -2.4602 O   0  0  0  0  0  0  0  0  0  0  0  0
   18.2865   70.0236   -5.6271 N   0  0  0  0  0  0  0  0  0  0  0  0
   18.4390   68.9291   -3.5235 N   0  0  0  0  0  0  0  0  0  0  0  0
   19.1145   69.5530   -4.5807 C   0  0  0  0  0  0  0  0  0  0  0  0
   16.9091   69.8542   -5.5567 C   0  0  0  0  0  0  0  0  0  0  0  0
   16.2797   69.2576   -4.5424 C   0  0  0  0  0  0  0  0  0  0  0  0
   17.0718   68.7367   -3.4090 C   0  0  0  0  0  0  0  0  0  0  0  0
   18.9946   68.5914   -2.7841 H   0  0  0  0  0  0  0  0  0  0  0  0
   18.7004   73.6929   -4.0427 O   0  0  0  0  0  0  0  0  0  0  0  0
   18.8475   73.1206   -2.5379 P   0  0  2  0  0  0  0  0  0  0  0  0
   17.8124   71.8763   -2.5125 O   0  0  0  0  0  0  0  0  0  0  0  0
   18.6117   74.1432   -1.4643 O   0  0  0  0  0  0  0  0  0  0  0  0
   20.3079   72.4361   -2.5013 O   0  0  0  0  0  0  0  0  0  0  0  0
   22.0621   72.4271   -0.9101 O   0  0  0  0  0  0  0  0  0  0  0  0
   24.1553   72.5891   -4.4683 O   0  0  0  0  0  0  0  0  0  0  0  0
   21.7514   74.2052   -4.0895 O   0  0  0  0  0  0  0  0  0  0  0  0
   24.0050   70.0989   -2.9758 O   0  0  0  0  0  0  0  0  0  0  0  0
   23.0748   72.2299   -3.6072 C   0  0  2  0  0  0  0  0  0  0  0  0
   22.4196   73.4953   -3.0531 C   0  0  2  0  0  0  0  0  0  0  0  0
   23.6410   71.3807   -2.4669 C   0  0  1  0  0  0  0  0  0  0  0  0
   21.4126   73.1536   -1.9540 C   0  0  1  0  0  0  0  0  0  0  0  0
   22.6162   71.1900   -1.3524 C   0  0  1  0  0  0  0  0  0  0  0  0
   23.8194   73.1294   -5.2007 H   0  0  0  0  0  0  0  0  0  0  0  0
   22.3844   74.4250   -4.7905 H   0  0  0  0  0  0  0  0  0  0  0  0
   24.6568   70.2062   -3.6861 H   0  0  0  0  0  0  0  0  0  0  0  0
   22.8244   71.3123    0.9807 O   0  0  0  0  0  0  0  0  0  0  0  0
   24.0852   69.7466   -0.0954 O   0  0  0  0  0  0  0  0  0  0  0  0
   23.2674   70.6541   -0.1191 C   0  0  0  0  0  0  0  0  0  0  0  0
  1  4  1  0
  1 24  1  0
  1  2  1  1
  1  3  2  0
 25 28  1  0
 25 24  1  0
 25 26  1  1
 25 27  2  0
  6 11  1  0
  6 12  1  0
 29 36  1  0
 29 37  1  0
  9  7  1  6
  7 13  1  0
 10  8  1  6
  8 14  1  0
  4  5  1  0
 36 28  1  6
 33 30  1  6
 30 38  1  0
 34 31  1  6
 31 39  1  0
 35 32  1  6
 32 40  1  0
 41 43  1  0
 15 19  2  0
 42 43  2  0
 16 22  2  0
 12 17  1  1
 17 19  1  0
 17 20  1  0
 18 19  1  0
 18 22  1  0
 18 23  1  0
  9 10  1  0
  9 11  1  0
 10 12  1  0
 11  5  1  1
 33 34  1  0
 33 35  1  0
 34 36  1  0
 35 37  1  0
 37 43  1  1
 20 21  2  0
 21 22  1  0
M  CHG  3   2  -1  26  -1  41  -1
M  END
>  <COMPND>  (10) 
    udp_gluA.pdb 

>  <AUTHOR>  (10) 
    GENERATED BY OPEN BABEL 3.1.1

>  <MASTER>  (10) 
        0    0    0    0    0    0    0    0   56    0   56    0

>  <minimizedAffinity>  (10) 
-7.55097

>  <CNNscore>  (10) 
0.3799628019

>  <CNNaffinity>  (10) 
4.1746206284

>  <CNN_VS>  (10) 
1.5862005949

>  <CNNaffinity_variance>  (10) 
0.5167322159

$$$$
11
     RDKit          3D

 43 45  0  0  0  0  0  0  0  0999 V2000
   21.6912   72.9637   -6.0943 P   0  0  2  0  0  0  0  0  0  0  0  0
   20.8811   74.2534   -6.6413 O   0  0  0  0  0  0  0  0  0  0  0  0
   23.1687   72.9859   -6.3556 O   0  0  0  0  0  0  0  0  0  0  0  0
   20.8863   71.7062   -6.7177 O   0  0  0  0  0  0  0  0  0  0  0  0
   20.5205   71.7481   -8.0848 C   0  0  0  0  0  0  0  0  0  0  0  0
   19.0677   70.1129   -7.0882 O   0  0  0  0  0  0  0  0  0  0  0  0
   17.6071   70.0870   -9.7068 O   0  0  0  0  0  0  0  0  0  0  0  0
   16.0112   71.6571   -8.1499 O   0  0  0  0  0  0  0  0  0  0  0  0
   18.2274   71.1798   -9.0289 C   0  0  1  0  0  0  0  0  0  0  0  0
   17.3886   71.6046   -7.8423 C   0  0  2  0  0  0  0  0  0  0  0  0
   19.4903   70.6593   -8.3563 C   0  0  1  0  0  0  0  0  0  0  0  0
   17.7192   70.5294   -6.8212 C   0  0  2  0  0  0  0  0  0  0  0  0
   16.7977   70.3951  -10.1445 H   0  0  0  0  0  0  0  0  0  0  0  0
   15.8523   72.3568   -8.8035 H   0  0  0  0  0  0  0  0  0  0  0  0
   17.0995   68.9181   -4.5861 O   0  0  0  0  0  0  0  0  0  0  0  0
   17.4354   72.4877   -1.6897 O   0  0  0  0  0  0  0  0  0  0  0  0
   17.6380   71.0119   -5.4716 N   0  0  0  0  0  0  0  0  0  0  0  0
   17.2664   70.6977   -3.1458 N   0  0  0  0  0  0  0  0  0  0  0  0
   17.3193   70.1194   -4.4209 C   0  0  0  0  0  0  0  0  0  0  0  0
   17.8742   72.3540   -5.1994 C   0  0  0  0  0  0  0  0  0  0  0  0
   17.8202   72.8905   -3.9788 C   0  0  0  0  0  0  0  0  0  0  0  0
   17.4928   72.0265   -2.8256 C   0  0  0  0  0  0  0  0  0  0  0  0
   17.0443   70.0964   -2.3984 H   0  0  0  0  0  0  0  0  0  0  0  0
   21.2846   72.9163   -4.5305 O   0  0  0  0  0  0  0  0  0  0  0  0
   21.5760   71.8069   -3.3912 P   0  0  2  0  0  0  0  0  0  0  0  0
   23.1853   71.6389   -3.4417 O   0  0  0  0  0  0  0  0  0  0  0  0
   20.8145   70.5255   -3.5703 O   0  0  0  0  0  0  0  0  0  0  0  0
   21.2895   72.5668   -1.9973 O   0  0  0  0  0  0  0  0  0  0  0  0
   22.6372   72.9959   -0.0976 O   0  0  0  0  0  0  0  0  0  0  0  0
   18.9458   72.3134    1.6273 O   0  0  0  0  0  0  0  0  0  0  0  0
   19.8863   70.6349   -0.5709 O   0  0  0  0  0  0  0  0  0  0  0  0
   19.9753   75.0232    1.4078 O   0  0  0  0  0  0  0  0  0  0  0  0
   19.8489   72.7524    0.6126 C   0  0  2  0  0  0  0  0  0  0  0  0
   20.6934   71.5714    0.1334 C   0  0  2  0  0  0  0  0  0  0  0  0
   20.7445   73.8378    1.2140 C   0  0  1  0  0  0  0  0  0  0  0  0
   21.8235   72.0430   -0.7827 C   0  0  1  0  0  0  0  0  0  0  0  0
   21.9188   74.1632    0.2954 C   0  0  1  0  0  0  0  0  0  0  0  0
   18.3663   71.6231    1.2681 H   0  0  0  0  0  0  0  0  0  0  0  0
   19.1669   70.3316    0.0043 H   0  0  0  0  0  0  0  0  0  0  0  0
   19.2244   74.8297    1.9906 H   0  0  0  0  0  0  0  0  0  0  0  0
   23.7973   75.5592    0.1407 O   0  0  0  0  0  0  0  0  0  0  0  0
   23.0290   75.0774    2.2327 O   0  0  0  0  0  0  0  0  0  0  0  0
   22.9515   74.9651    1.0185 C   0  0  0  0  0  0  0  0  0  0  0  0
  1  4  1  0
  1 24  1  0
  1  2  1  6
  1  3  2  0
 25 28  1  0
 25 24  1  0
 25 26  1  1
 25 27  2  0
  6 11  1  0
  6 12  1  0
 29 36  1  0
 29 37  1  0
  9  7  1  1
  7 13  1  0
 10  8  1  6
  8 14  1  0
  4  5  1  0
 36 28  1  6
 33 30  1  1
 30 38  1  0
 34 31  1  6
 31 39  1  0
 35 32  1  6
 32 40  1  0
 41 43  1  0
 15 19  2  0
 42 43  2  0
 16 22  2  0
 12 17  1  1
 17 19  1  0
 17 20  1  0
 18 19  1  0
 18 22  1  0
 18 23  1  0
  9 10  1  0
  9 11  1  0
 10 12  1  0
 11  5  1  1
 33 34  1  0
 33 35  1  0
 34 36  1  0
 35 37  1  0
 37 43  1  1
 20 21  2  0
 21 22  1  0
M  CHG  3   2  -1  26  -1  41  -1
M  END
>  <COMPND>  (11) 
    udp_gluA.pdb 

>  <AUTHOR>  (11) 
    GENERATED BY OPEN BABEL 3.1.1

>  <MASTER>  (11) 
        0    0    0    0    0    0    0    0   56    0   56    0

>  <minimizedAffinity>  (11) 
-7.15112

>  <CNNscore>  (11) 
0.3780728877

>  <CNNaffinity>  (11) 
4.0049924850

>  <CNN_VS>  (11) 
1.5141791105

>  <CNNaffinity_variance>  (11) 
0.2524065375

$$$$
12
     RDKit          3D

 43 45  0  0  0  0  0  0  0  0999 V2000
   19.9179   76.6774   -2.1061 P   0  0  2  0  0  0  0  0  0  0  0  0
   20.9716   77.8906   -2.2977 O   0  0  0  0  0  0  0  0  0  0  0  0
   18.6178   76.8461   -2.8363 O   0  0  0  0  0  0  0  0  0  0  0  0
   19.8056   76.5102   -0.5007 O   0  0  0  0  0  0  0  0  0  0  0  0
   20.7024   75.6301    0.1518 C   0  0  0  0  0  0  0  0  0  0  0  0
   19.8579   73.3833    0.2804 O   0  0  0  0  0  0  0  0  0  0  0  0
   19.5226   73.8759    3.2192 O   0  0  0  0  0  0  0  0  0  0  0  0
   21.8283   72.4236    3.1177 O   0  0  0  0  0  0  0  0  0  0  0  0
   20.5462   74.3363    2.3368 C   0  0  1  0  0  0  0  0  0  0  0  0
   21.4882   73.2029    1.9901 C   0  0  2  0  0  0  0  0  0  0  0  0
   19.9040   74.6401    0.9901 C   0  0  1  0  0  0  0  0  0  0  0  0
   20.6819   72.4255    0.9637 C   0  0  2  0  0  0  0  0  0  0  0  0
   19.9089   73.6753    4.0865 H   0  0  0  0  0  0  0  0  0  0  0  0
   22.3407   72.9631    3.7409 H   0  0  0  0  0  0  0  0  0  0  0  0
   19.9310   70.1033   -0.4576 O   0  0  0  0  0  0  0  0  0  0  0  0
   23.9587   69.9480   -2.6931 O   0  0  0  0  0  0  0  0  0  0  0  0
   21.5150   71.7575    0.0042 N   0  0  0  0  0  0  0  0  0  0  0  0
   21.9381   70.0276   -1.5689 N   0  0  0  0  0  0  0  0  0  0  0  0
   21.0427   70.5976   -0.6544 C   0  0  0  0  0  0  0  0  0  0  0  0
   22.7827   72.2521   -0.2772 C   0  0  0  0  0  0  0  0  0  0  0  0
   23.6248   71.6979   -1.1515 C   0  0  0  0  0  0  0  0  0  0  0  0
   23.2088   70.4825   -1.8818 C   0  0  0  0  0  0  0  0  0  0  0  0
   21.6324   69.2180   -2.0383 H   0  0  0  0  0  0  0  0  0  0  0  0
   20.7746   75.3796   -2.5476 O   0  0  0  0  0  0  0  0  0  0  0  0
   21.3745   74.9420   -3.9837 P   0  0  2  0  0  0  0  0  0  0  0  0
   22.9038   74.5392   -3.6385 O   0  0  0  0  0  0  0  0  0  0  0  0
   21.2365   75.9868   -5.0529 O   0  0  0  0  0  0  0  0  0  0  0  0
   20.6501   73.5403   -4.3198 O   0  0  0  0  0  0  0  0  0  0  0  0
   20.8855   71.1862   -4.2097 O   0  0  0  0  0  0  0  0  0  0  0  0
   20.4206   71.7957   -8.2693 O   0  0  0  0  0  0  0  0  0  0  0  0
   22.1087   73.5799   -6.6877 O   0  0  0  0  0  0  0  0  0  0  0  0
   18.2184   70.7431   -6.6902 O   0  0  0  0  0  0  0  0  0  0  0  0
   20.2252   72.0628   -6.8807 C   0  0  2  0  0  0  0  0  0  0  0  0
   21.5741   72.3472   -6.2195 C   0  0  2  0  0  0  0  0  0  0  0  0
   19.5721   70.8312   -6.2494 C   0  0  1  0  0  0  0  0  0  0  0  0
   21.4349   72.4107   -4.6978 C   0  0  1  0  0  0  0  0  0  0  0  0
   19.5845   70.9133   -4.7257 C   0  0  1  0  0  0  0  0  0  0  0  0
   20.8347   72.5647   -8.6916 H   0  0  0  0  0  0  0  0  0  0  0  0
   22.1994   73.5467   -7.6527 H   0  0  0  0  0  0  0  0  0  0  0  0
   18.1964   70.6905   -7.6585 H   0  0  0  0  0  0  0  0  0  0  0  0
   17.9151   69.3775   -4.1292 O   0  0  0  0  0  0  0  0  0  0  0  0
   20.0731   68.7955   -3.6782 O   0  0  0  0  0  0  0  0  0  0  0  0
   19.2547   69.5878   -4.1204 C   0  0  0  0  0  0  0  0  0  0  0  0
  1  4  1  0
  1 24  1  0
  1  2  1  1
  1  3  2  0
 25 28  1  0
 25 24  1  0
 25 26  1  1
 25 27  2  0
  6 11  1  0
  6 12  1  0
 29 36  1  0
 29 37  1  0
  9  7  1  1
  7 13  1  0
 10  8  1  1
  8 14  1  0
  4  5  1  0
 36 28  1  6
 33 30  1  6
 30 38  1  0
 34 31  1  6
 31 39  1  0
 35 32  1  6
 32 40  1  0
 41 43  1  0
 15 19  2  0
 42 43  2  0
 16 22  2  0
 12 17  1  6
 17 19  1  0
 17 20  1  0
 18 19  1  0
 18 22  1  0
 18 23  1  0
  9 10  1  0
  9 11  1  0
 10 12  1  0
 11  5  1  6
 33 34  1  0
 33 35  1  0
 34 36  1  0
 35 37  1  0
 37 43  1  1
 20 21  2  0
 21 22  1  0
M  CHG  3   2  -1  26  -1  41  -1
M  END
>  <COMPND>  (12) 
    udp_gluA.pdb 

>  <AUTHOR>  (12) 
    GENERATED BY OPEN BABEL 3.1.1

>  <MASTER>  (12) 
        0    0    0    0    0    0    0    0   56    0   56    0

>  <minimizedAffinity>  (12) 
-6.90867

>  <CNNscore>  (12) 
0.3721055686

>  <CNNaffinity>  (12) 
3.9891769886

>  <CNN_VS>  (12) 
1.4843950272

>  <CNNaffinity_variance>  (12) 
0.6784693003

$$$$
13
     RDKit          3D

 43 45  0  0  0  0  0  0  0  0999 V2000
   20.9259   70.8829   -1.4177 P   0  0  2  0  0  0  0  0  0  0  0  0
   22.1023   69.9934   -2.0838 O   0  0  0  0  0  0  0  0  0  0  0  0
   20.1899   70.2187   -0.2912 O   0  0  0  0  0  0  0  0  0  0  0  0
   20.0194   71.3355   -2.6791 O   0  0  0  0  0  0  0  0  0  0  0  0
   20.4779   72.3982   -3.4946 C   0  0  0  0  0  0  0  0  0  0  0  0
   20.0924   70.6270   -5.0731 O   0  0  0  0  0  0  0  0  0  0  0  0
   21.2491   72.4675   -7.1386 O   0  0  0  0  0  0  0  0  0  0  0  0
   18.5663   72.6996   -7.5691 O   0  0  0  0  0  0  0  0  0  0  0  0
   20.4307   72.7760   -6.0100 C   0  0  1  0  0  0  0  0  0  0  0  0
   18.9996   72.3554   -6.2697 C   0  0  2  0  0  0  0  0  0  0  0  0
   20.8333   71.8498   -4.8706 C   0  0  1  0  0  0  0  0  0  0  0  0
   19.0685   70.8531   -6.0549 C   0  0  2  0  0  0  0  0  0  0  0  0
   21.0102   73.0467   -7.8796 H   0  0  0  0  0  0  0  0  0  0  0  0
   18.5391   73.6659   -7.6554 H   0  0  0  0  0  0  0  0  0  0  0  0
   16.8593   70.2142   -7.6943 O   0  0  0  0  0  0  0  0  0  0  0  0
   14.3681   68.7798   -4.0914 O   0  0  0  0  0  0  0  0  0  0  0  0
   17.8302   70.3113   -5.5715 N   0  0  0  0  0  0  0  0  0  0  0  0
   15.6203   69.5014   -5.8982 N   0  0  0  0  0  0  0  0  0  0  0  0
   16.7827   70.0256   -6.4788 C   0  0  0  0  0  0  0  0  0  0  0  0
   17.6631   70.0669   -4.2138 C   0  0  0  0  0  0  0  0  0  0  0  0
   16.5493   69.5668   -3.6752 C   0  0  0  0  0  0  0  0  0  0  0  0
   15.4069   69.2416   -4.5541 C   0  0  0  0  0  0  0  0  0  0  0  0
   14.8764   69.2964   -6.5097 H   0  0  0  0  0  0  0  0  0  0  0  0
   21.6896   72.2482   -1.0106 O   0  0  0  0  0  0  0  0  0  0  0  0
   22.2224   72.7803    0.4201 P   0  0  2  0  0  0  0  0  0  0  0  0
   23.5095   73.6788    0.0246 O   0  0  0  0  0  0  0  0  0  0  0  0
   22.5096   71.6921    1.4137 O   0  0  0  0  0  0  0  0  0  0  0  0
   21.1120   73.8481    0.8989 O   0  0  0  0  0  0  0  0  0  0  0  0
   20.7941   74.9304    2.9814 O   0  0  0  0  0  0  0  0  0  0  0  0
   16.9037   74.4767    1.6673 O   0  0  0  0  0  0  0  0  0  0  0  0
   18.8376   72.3108    1.3456 O   0  0  0  0  0  0  0  0  0  0  0  0
   18.1940   77.0784    1.5365 O   0  0  0  0  0  0  0  0  0  0  0  0
   18.3112   74.6719    1.5300 C   0  0  2  0  0  0  0  0  0  0  0  0
   19.0544   73.4781    2.1299 C   0  0  2  0  0  0  0  0  0  0  0  0
   18.6847   75.9581    2.2704 C   0  0  1  0  0  0  0  0  0  0  0  0
   20.5568   73.7527    2.2094 C   0  0  1  0  0  0  0  0  0  0  0  0
   20.1971   76.0965    2.4184 C   0  0  1  0  0  0  0  0  0  0  0  0
   16.6430   73.6648    1.2046 H   0  0  0  0  0  0  0  0  0  0  0  0
   17.8863   72.1308    1.2907 H   0  0  0  0  0  0  0  0  0  0  0  0
   17.2323   77.0024    1.4351 H   0  0  0  0  0  0  0  0  0  0  0  0
   19.5468   77.2958    4.3264 O   0  0  0  0  0  0  0  0  0  0  0  0
   21.5663   77.8199    3.4066 O   0  0  0  0  0  0  0  0  0  0  0  0
   20.5379   77.1602    3.4107 C   0  0  0  0  0  0  0  0  0  0  0  0
  1  4  1  0
  1 24  1  0
  1  2  1  6
  1  3  2  0
 25 28  1  0
 25 24  1  0
 25 26  1  6
 25 27  2  0
  6 11  1  0
  6 12  1  0
 29 36  1  0
 29 37  1  0
  9  7  1  6
  7 13  1  0
 10  8  1  6
  8 14  1  0
  4  5  1  0
 36 28  1  6
 33 30  1  1
 30 38  1  0
 34 31  1  6
 31 39  1  0
 35 32  1  6
 32 40  1  0
 41 43  1  0
 15 19  2  0
 42 43  2  0
 16 22  2  0
 12 17  1  1
 17 19  1  0
 17 20  1  0
 18 19  1  0
 18 22  1  0
 18 23  1  0
  9 10  1  0
  9 11  1  0
 10 12  1  0
 11  5  1  1
 33 34  1  0
 33 35  1  0
 34 36  1  0
 35 37  1  0
 37 43  1  1
 20 21  2  0
 21 22  1  0
M  CHG  3   2  -1  26  -1  41  -1
M  END
>  <COMPND>  (13) 
    udp_gluA.pdb 

>  <AUTHOR>  (13) 
    GENERATED BY OPEN BABEL 3.1.1

>  <MASTER>  (13) 
        0    0    0    0    0    0    0    0   56    0   56    0

>  <minimizedAffinity>  (13) 
-6.95717

>  <CNNscore>  (13) 
0.3637331724

>  <CNNaffinity>  (13) 
4.2239613533

>  <CNN_VS>  (13) 
1.5363948345

>  <CNNaffinity_variance>  (13) 
0.1586326510

$$$$
14
     RDKit          3D

 43 45  0  0  0  0  0  0  0  0999 V2000
   22.0232   72.9495   -4.6760 P   0  0  2  0  0  0  0  0  0  0  0  0
   23.5689   72.8993   -5.1527 O   0  0  0  0  0  0  0  0  0  0  0  0
   21.5256   74.3093   -4.2819 O   0  0  0  0  0  0  0  0  0  0  0  0
   21.9323   71.8092   -3.5317 O   0  0  0  0  0  0  0  0  0  0  0  0
   22.8417   71.8648   -2.4480 C   0  0  0  0  0  0  0  0  0  0  0  0
   22.9244   71.3717   -0.0969 O   0  0  0  0  0  0  0  0  0  0  0  0
   20.4722   69.7063   -0.5495 O   0  0  0  0  0  0  0  0  0  0  0  0
   19.4483   71.9959    0.5207 O   0  0  0  0  0  0  0  0  0  0  0  0
   20.8523   70.9397   -1.1602 C   0  0  1  0  0  0  0  0  0  0  0  0
   20.6668   72.0851   -0.1876 C   0  0  2  0  0  0  0  0  0  0  0  0
   22.3629   70.9241   -1.3498 C   0  0  1  0  0  0  0  0  0  0  0  0
   21.8799   71.9327    0.7141 C   0  0  2  0  0  0  0  0  0  0  0  0
   19.5108   69.6929   -0.4182 H   0  0  0  0  0  0  0  0  0  0  0  0
   18.7069   72.0993   -0.0970 H   0  0  0  0  0  0  0  0  0  0  0  0
   21.8959   72.5810    3.4629 O   0  0  0  0  0  0  0  0  0  0  0  0
   23.6161   76.7791    2.6496 O   0  0  0  0  0  0  0  0  0  0  0  0
   22.3268   73.1880    1.2483 N   0  0  0  0  0  0  0  0  0  0  0  0
   22.7517   74.6716    3.0552 N   0  0  0  0  0  0  0  0  0  0  0  0
   22.2936   73.4127    2.6450 C   0  0  0  0  0  0  0  0  0  0  0  0
   22.7926   74.1793    0.3932 C   0  0  0  0  0  0  0  0  0  0  0  0
   23.2261   75.3743    0.7990 C   0  0  0  0  0  0  0  0  0  0  0  0
   23.2236   75.6898    2.2426 C   0  0  0  0  0  0  0  0  0  0  0  0
   22.7362   74.8521    4.0229 H   0  0  0  0  0  0  0  0  0  0  0  0
   21.2380   72.2795   -5.9199 O   0  0  0  0  0  0  0  0  0  0  0  0
   19.6781   71.8992   -6.1096 P   0  0  2  0  0  0  0  0  0  0  0  0
   19.0596   72.1261   -4.6310 O   0  0  0  0  0  0  0  0  0  0  0  0
   19.4429   70.5283   -6.6746 O   0  0  0  0  0  0  0  0  0  0  0  0
   19.0683   73.1019   -6.9950 O   0  0  0  0  0  0  0  0  0  0  0  0
   17.0606   74.3496   -6.8488 O   0  0  0  0  0  0  0  0  0  0  0  0
   17.5440   74.0111  -10.9377 O   0  0  0  0  0  0  0  0  0  0  0  0
   18.0589   71.7263   -9.1915 O   0  0  0  0  0  0  0  0  0  0  0  0
   18.1397   76.5229   -9.6009 O   0  0  0  0  0  0  0  0  0  0  0  0
   17.9704   74.1196   -9.5796 C   0  0  2  0  0  0  0  0  0  0  0  0
   17.4315   72.9346   -8.7779 C   0  0  2  0  0  0  0  0  0  0  0  0
   17.4264   75.4345   -9.0168 C   0  0  1  0  0  0  0  0  0  0  0  0
   17.6711   73.1329   -7.2805 C   0  0  1  0  0  0  0  0  0  0  0  0
   17.5898   75.5017   -7.5011 C   0  0  1  0  0  0  0  0  0  0  0  0
   17.8780   73.1827  -11.3165 H   0  0  0  0  0  0  0  0  0  0  0  0
   17.9111   71.5943  -10.1408 H   0  0  0  0  0  0  0  0  0  0  0  0
   18.0439   76.4916  -10.5656 H   0  0  0  0  0  0  0  0  0  0  0  0
   15.8895   76.1412   -6.0174 O   0  0  0  0  0  0  0  0  0  0  0  0
   16.8861   77.7938   -7.2318 O   0  0  0  0  0  0  0  0  0  0  0  0
   16.7749   76.6154   -6.9285 C   0  0  0  0  0  0  0  0  0  0  0  0
  1  4  1  0
  1 24  1  0
  1  2  1  6
  1  3  2  0
 25 28  1  0
 25 24  1  0
 25 26  1  1
 25 27  2  0
  6 11  1  0
  6 12  1  0
 29 36  1  0
 29 37  1  0
  9  7  1  1
  7 13  1  0
 10  8  1  1
  8 14  1  0
  4  5  1  0
 36 28  1  6
 33 30  1  6
 30 38  1  0
 34 31  1  6
 31 39  1  0
 35 32  1  6
 32 40  1  0
 41 43  1  0
 15 19  2  0
 42 43  2  0
 16 22  2  0
 12 17  1  6
 17 19  1  0
 17 20  1  0
 18 19  1  0
 18 22  1  0
 18 23  1  0
  9 10  1  0
  9 11  1  0
 10 12  1  0
 11  5  1  6
 33 34  1  0
 33 35  1  0
 34 36  1  0
 35 37  1  0
 37 43  1  1
 20 21  2  0
 21 22  1  0
M  CHG  3   2  -1  26  -1  41  -1
M  END
>  <COMPND>  (14) 
    udp_gluA.pdb 

>  <AUTHOR>  (14) 
    GENERATED BY OPEN BABEL 3.1.1

>  <MASTER>  (14) 
        0    0    0    0    0    0    0    0   56    0   56    0

>  <minimizedAffinity>  (14) 
-7.10252

>  <CNNscore>  (14) 
0.3633796275

>  <CNNaffinity>  (14) 
3.9968521595

>  <CNN_VS>  (14) 
1.4523746967

>  <CNNaffinity_variance>  (14) 
0.0752471834

$$$$
15
     RDKit          3D

 43 45  0  0  0  0  0  0  0  0999 V2000
   18.8720   75.2868   -4.3387 P   0  0  2  0  0  0  0  0  0  0  0  0
   17.2651   75.0952   -4.3350 O   0  0  0  0  0  0  0  0  0  0  0  0
   19.3678   76.4648   -5.1250 O   0  0  0  0  0  0  0  0  0  0  0  0
   19.4342   73.8433   -4.8058 O   0  0  0  0  0  0  0  0  0  0  0  0
   20.0963   73.0343   -3.8509 C   0  0  0  0  0  0  0  0  0  0  0  0
   18.2080   71.6602   -4.4201 O   0  0  0  0  0  0  0  0  0  0  0  0
   18.9856   69.9484   -2.0842 O   0  0  0  0  0  0  0  0  0  0  0  0
   19.9602   68.5397   -4.2059 O   0  0  0  0  0  0  0  0  0  0  0  0
   19.8187   70.6503   -3.0071 C   0  0  1  0  0  0  0  0  0  0  0  0
   19.8350   69.9396   -4.3438 C   0  0  2  0  0  0  0  0  0  0  0  0
   19.1325   71.9647   -3.3534 C   0  0  1  0  0  0  0  0  0  0  0  0
   18.4982   70.3516   -4.9364 C   0  0  2  0  0  0  0  0  0  0  0  0
   19.4032   69.1049   -1.8480 H   0  0  0  0  0  0  0  0  0  0  0  0
   20.8276   68.3286   -3.8250 H   0  0  0  0  0  0  0  0  0  0  0  0
   16.2744   69.8478   -6.6029 O   0  0  0  0  0  0  0  0  0  0  0  0
   18.7347   70.6114  -10.4249 O   0  0  0  0  0  0  0  0  0  0  0  0
   18.5297   70.4118   -6.3703 N   0  0  0  0  0  0  0  0  0  0  0  0
   17.5021   70.2276   -8.5049 N   0  0  0  0  0  0  0  0  0  0  0  0
   17.3568   70.1410   -7.1141 C   0  0  0  0  0  0  0  0  0  0  0  0
   19.7113   70.7375   -7.0251 C   0  0  0  0  0  0  0  0  0  0  0  0
   19.8343   70.8163   -8.3515 C   0  0  0  0  0  0  0  0  0  0  0  0
   18.6562   70.5471   -9.2018 C   0  0  0  0  0  0  0  0  0  0  0  0
   16.6996   70.0413   -9.0440 H   0  0  0  0  0  0  0  0  0  0  0  0
   19.2363   75.3265   -2.7643 O   0  0  0  0  0  0  0  0  0  0  0  0
   20.3720   76.1474   -1.9581 P   0  0  2  0  0  0  0  0  0  0  0  0
   19.6938   77.6011   -1.7412 O   0  0  0  0  0  0  0  0  0  0  0  0
   21.7079   76.1841   -2.6423 O   0  0  0  0  0  0  0  0  0  0  0  0
   20.3908   75.4835   -0.4879 O   0  0  0  0  0  0  0  0  0  0  0  0
   20.0123   73.1604   -0.2252 O   0  0  0  0  0  0  0  0  0  0  0  0
   19.3417   74.5598    3.6037 O   0  0  0  0  0  0  0  0  0  0  0  0
   18.3232   76.0263    1.2914 O   0  0  0  0  0  0  0  0  0  0  0  0
   21.8138   73.1671    2.9712 O   0  0  0  0  0  0  0  0  0  0  0  0
   19.9470   74.5397    2.3109 C   0  0  2  0  0  0  0  0  0  0  0  0
   18.8707   74.7140    1.2392 C   0  0  2  0  0  0  0  0  0  0  0  0
   20.6543   73.1934    2.1409 C   0  0  1  0  0  0  0  0  0  0  0  0
   19.4443   74.4689   -0.1572 C   0  0  1  0  0  0  0  0  0  0  0  0
   21.0852   72.9693    0.6943 C   0  0  1  0  0  0  0  0  0  0  0  0
   18.8859   75.4063    3.7344 H   0  0  0  0  0  0  0  0  0  0  0  0
   17.9576   76.1887    2.1748 H   0  0  0  0  0  0  0  0  0  0  0  0
   21.5533   73.3087    3.8948 H   0  0  0  0  0  0  0  0  0  0  0  0
   22.7876   71.3561    0.7259 O   0  0  0  0  0  0  0  0  0  0  0  0
   20.7061   70.6596    0.1084 O   0  0  0  0  0  0  0  0  0  0  0  0
   21.4691   71.5429    0.4700 C   0  0  0  0  0  0  0  0  0  0  0  0
  1  4  1  0
  1 24  1  0
  1  2  1  1
  1  3  2  0
 25 28  1  0
 25 24  1  0
 25 26  1  1
 25 27  2  0
  6 11  1  0
  6 12  1  0
 29 36  1  0
 29 37  1  0
  9  7  1  1
  7 13  1  0
 10  8  1  1
  8 14  1  0
  4  5  1  0
 36 28  1  1
 33 30  1  1
 30 38  1  0
 34 31  1  6
 31 39  1  0
 35 32  1  1
 32 40  1  0
 41 43  1  0
 15 19  2  0
 42 43  2  0
 16 22  2  0
 12 17  1  6
 17 19  1  0
 17 20  1  0
 18 19  1  0
 18 22  1  0
 18 23  1  0
  9 10  1  0
  9 11  1  0
 10 12  1  0
 11  5  1  6
 33 34  1  0
 33 35  1  0
 34 36  1  0
 35 37  1  0
 37 43  1  1
 20 21  2  0
 21 22  1  0
M  CHG  3   2  -1  26  -1  41  -1
M  END
>  <COMPND>  (15) 
    udp_gluA.pdb 

>  <AUTHOR>  (15) 
    GENERATED BY OPEN BABEL 3.1.1

>  <MASTER>  (15) 
        0    0    0    0    0    0    0    0   56    0   56    0

>  <minimizedAffinity>  (15) 
-6.76111

>  <CNNscore>  (15) 
0.3578594029

>  <CNNaffinity>  (15) 
4.0900430679

>  <CNN_VS>  (15) 
1.4636603594

>  <CNNaffinity_variance>  (15) 
0.1850427985

$$$$
16
     RDKit          3D

 43 45  0  0  0  0  0  0  0  0999 V2000
   19.3546   75.2972   -2.8558 P   0  0  2  0  0  0  0  0  0  0  0  0
   20.1120   76.6662   -3.2695 O   0  0  0  0  0  0  0  0  0  0  0  0
   17.8722   75.4269   -2.6621 O   0  0  0  0  0  0  0  0  0  0  0  0
   20.1867   74.7648   -1.5743 O   0  0  0  0  0  0  0  0  0  0  0  0
   19.9487   75.3678   -0.3157 C   0  0  0  0  0  0  0  0  0  0  0  0
   19.4358   73.0449    0.0288 O   0  0  0  0  0  0  0  0  0  0  0  0
   18.8537   73.7872    2.8751 O   0  0  0  0  0  0  0  0  0  0  0  0
   21.3490   72.7001    3.0412 O   0  0  0  0  0  0  0  0  0  0  0  0
   19.8508   74.3026    1.9926 C   0  0  1  0  0  0  0  0  0  0  0  0
   20.9678   73.2955    1.8186 C   0  0  2  0  0  0  0  0  0  0  0  0
   19.2542   74.3617    0.5930 C   0  0  1  0  0  0  0  0  0  0  0  0
   20.3480   72.3009    0.8520 C   0  0  2  0  0  0  0  0  0  0  0  0
   19.2118   73.7402    3.7758 H   0  0  0  0  0  0  0  0  0  0  0  0
   21.7381   73.3738    3.6215 H   0  0  0  0  0  0  0  0  0  0  0  0
   19.9253   69.8890   -0.5554 O   0  0  0  0  0  0  0  0  0  0  0  0
   24.1740   69.9728   -2.3401 O   0  0  0  0  0  0  0  0  0  0  0  0
   21.3267   71.6701    0.0122 N   0  0  0  0  0  0  0  0  0  0  0  0
   22.0421   69.9325   -1.4421 N   0  0  0  0  0  0  0  0  0  0  0  0
   21.0135   70.4596   -0.6502 C   0  0  0  0  0  0  0  0  0  0  0  0
   22.5788   72.2504   -0.1500 C   0  0  0  0  0  0  0  0  0  0  0  0
   23.5491   71.7362   -0.9083 C   0  0  0  0  0  0  0  0  0  0  0  0
   23.3036   70.4726   -1.6338 C   0  0  0  0  0  0  0  0  0  0  0  0
   21.8484   69.0891   -1.9115 H   0  0  0  0  0  0  0  0  0  0  0  0
   19.7937   74.2718   -4.0257 O   0  0  0  0  0  0  0  0  0  0  0  0
   19.9223   72.6603   -4.0315 P   0  0  2  0  0  0  0  0  0  0  0  0
   18.7379   72.1911   -3.0327 O   0  0  0  0  0  0  0  0  0  0  0  0
   21.2840   72.1498   -3.6587 O   0  0  0  0  0  0  0  0  0  0  0  0
   19.4187   72.2148   -5.4979 O   0  0  0  0  0  0  0  0  0  0  0  0
   18.8596   69.9161   -5.3843 O   0  0  0  0  0  0  0  0  0  0  0  0
   17.9946   70.7978   -9.3267 O   0  0  0  0  0  0  0  0  0  0  0  0
   20.4127   71.8505   -8.0699 O   0  0  0  0  0  0  0  0  0  0  0  0
   15.8443   70.4882   -7.3951 O   0  0  0  0  0  0  0  0  0  0  0  0
   18.1222   71.0630   -7.9298 C   0  0  2  0  0  0  0  0  0  0  0  0
   19.5741   70.8525   -7.4994 C   0  0  2  0  0  0  0  0  0  0  0  0
   17.1997   70.0997   -7.1794 C   0  0  1  0  0  0  0  0  0  0  0  0
   19.7060   70.9021   -5.9766 C   0  0  1  0  0  0  0  0  0  0  0  0
   17.4789   70.1158   -5.6793 C   0  0  1  0  0  0  0  0  0  0  0  0
   18.5721   71.3983   -9.8240 H   0  0  0  0  0  0  0  0  0  0  0  0
   20.3337   71.8249   -9.0361 H   0  0  0  0  0  0  0  0  0  0  0  0
   15.6536   70.4823   -8.3461 H   0  0  0  0  0  0  0  0  0  0  0  0
   15.4724   69.1022   -5.0099 O   0  0  0  0  0  0  0  0  0  0  0  0
   17.4083   68.0035   -4.5155 O   0  0  0  0  0  0  0  0  0  0  0  0
   16.8207   68.9565   -5.0047 C   0  0  0  0  0  0  0  0  0  0  0  0
  1  4  1  0
  1 24  1  0
  1  2  1  6
  1  3  2  0
 25 28  1  0
 25 24  1  0
 25 26  1  1
 25 27  2  0
  6 11  1  0
  6 12  1  0
 29 36  1  0
 29 37  1  0
  9  7  1  1
  7 13  1  0
 10  8  1  1
  8 14  1  0
  4  5  1  0
 36 28  1  1
 33 30  1  6
 30 38  1  0
 34 31  1  6
 31 39  1  0
 35 32  1  1
 32 40  1  0
 41 43  1  0
 15 19  2  0
 42 43  2  0
 16 22  2  0
 12 17  1  6
 17 19  1  0
 17 20  1  0
 18 19  1  0
 18 22  1  0
 18 23  1  0
  9 10  1  0
  9 11  1  0
 10 12  1  0
 11  5  1  6
 33 34  1  0
 33 35  1  0
 34 36  1  0
 35 37  1  0
 37 43  1  1
 20 21  2  0
 21 22  1  0
M  CHG  3   2  -1  26  -1  41  -1
M  END
>  <COMPND>  (16) 
    udp_gluA.pdb 

>  <AUTHOR>  (16) 
    GENERATED BY OPEN BABEL 3.1.1

>  <MASTER>  (16) 
        0    0    0    0    0    0    0    0   56    0   56    0

>  <minimizedAffinity>  (16) 
-7.79170

>  <CNNscore>  (16) 
0.3552648723

>  <CNNaffinity>  (16) 
4.0769872665

>  <CNN_VS>  (16) 
1.4484103918

>  <CNNaffinity_variance>  (16) 
0.5271524191

$$$$
17
     RDKit          3D

 43 45  0  0  0  0  0  0  0  0999 V2000
   18.5486   73.2145   -1.6743 P   0  0  2  0  0  0  0  0  0  0  0  0
   19.1484   74.7049   -1.4799 O   0  0  0  0  0  0  0  0  0  0  0  0
   17.0516   73.1225   -1.6245 O   0  0  0  0  0  0  0  0  0  0  0  0
   19.3437   72.3296   -0.5776 O   0  0  0  0  0  0  0  0  0  0  0  0
   19.2762   72.7180    0.7823 C   0  0  0  0  0  0  0  0  0  0  0  0
   21.3360   71.5007    0.5517 O   0  0  0  0  0  0  0  0  0  0  0  0
   22.1214   72.6966    3.1870 O   0  0  0  0  0  0  0  0  0  0  0  0
   23.4728   74.2516    1.4005 O   0  0  0  0  0  0  0  0  0  0  0  0
   21.3664   73.2742    2.1216 C   0  0  1  0  0  0  0  0  0  0  0  0
   22.2785   73.6342    0.9680 C   0  0  2  0  0  0  0  0  0  0  0  0
   20.4997   72.1803    1.5131 C   0  0  1  0  0  0  0  0  0  0  0  0
   22.5206   72.2802    0.3230 C   0  0  2  0  0  0  0  0  0  0  0  0
   22.6831   73.3767    3.5914 H   0  0  0  0  0  0  0  0  0  0  0  0
   23.2655   75.1099    1.8034 H   0  0  0  0  0  0  0  0  0  0  0  0
   23.5917   70.2081   -1.2695 O   0  0  0  0  0  0  0  0  0  0  0  0
   23.3509   72.7731   -5.0914 O   0  0  0  0  0  0  0  0  0  0  0  0
   22.7483   72.3796   -1.0909 N   0  0  0  0  0  0  0  0  0  0  0  0
   23.4717   71.4880   -3.1713 N   0  0  0  0  0  0  0  0  0  0  0  0
   23.2909   71.2803   -1.7975 C   0  0  0  0  0  0  0  0  0  0  0  0
   22.4340   73.5545   -1.7631 C   0  0  0  0  0  0  0  0  0  0  0  0
   22.6119   73.7374   -3.0730 C   0  0  0  0  0  0  0  0  0  0  0  0
   23.1749   72.6382   -3.8843 C   0  0  0  0  0  0  0  0  0  0  0  0
   23.8500   70.7375   -3.6841 H   0  0  0  0  0  0  0  0  0  0  0  0
   19.2064   72.7380   -3.0718 O   0  0  0  0  0  0  0  0  0  0  0  0
   19.2336   71.2916   -3.7935 P   0  0  2  0  0  0  0  0  0  0  0  0
   17.9197   70.5566   -3.1986 O   0  0  0  0  0  0  0  0  0  0  0  0
   20.5115   70.5288   -3.5960 O   0  0  0  0  0  0  0  0  0  0  0  0
   18.8671   71.5962   -5.3347 O   0  0  0  0  0  0  0  0  0  0  0  0
   19.5756   70.7814   -7.4426 O   0  0  0  0  0  0  0  0  0  0  0  0
   19.3450   74.8458   -8.1466 O   0  0  0  0  0  0  0  0  0  0  0  0
   20.4837   73.8372   -5.6525 O   0  0  0  0  0  0  0  0  0  0  0  0
   17.2819   73.0691   -9.1653 O   0  0  0  0  0  0  0  0  0  0  0  0
   18.9798   73.6052   -7.5421 C   0  0  2  0  0  0  0  0  0  0  0  0
   20.1784   73.0322   -6.7854 C   0  0  2  0  0  0  0  0  0  0  0  0
   18.5448   72.6475   -8.6537 C   0  0  1  0  0  0  0  0  0  0  0  0
   19.8988   71.6025   -6.3198 C   0  0  1  0  0  0  0  0  0  0  0  0
   18.4089   71.2184   -8.1362 C   0  0  1  0  0  0  0  0  0  0  0  0
   19.6252   75.4705   -7.4592 H   0  0  0  0  0  0  0  0  0  0  0  0
   20.6619   74.7458   -5.9406 H   0  0  0  0  0  0  0  0  0  0  0  0
   17.3546   73.9774   -9.4978 H   0  0  0  0  0  0  0  0  0  0  0  0
   18.7747   70.8076  -10.4163 O   0  0  0  0  0  0  0  0  0  0  0  0
   17.8758   69.1120   -9.1851 O   0  0  0  0  0  0  0  0  0  0  0  0
   18.3107   70.2507   -9.2703 C   0  0  0  0  0  0  0  0  0  0  0  0
  1  4  1  0
  1 24  1  0
  1  2  1  1
  1  3  2  0
 25 28  1  0
 25 24  1  0
 25 26  1  1
 25 27  2  0
  6 11  1  0
  6 12  1  0
 29 36  1  0
 29 37  1  0
  9  7  1  1
  7 13  1  0
 10  8  1  1
  8 14  1  0
  4  5  1  0
 36 28  1  1
 33 30  1  6
 30 38  1  0
 34 31  1  1
 31 39  1  0
 35 32  1  1
 32 40  1  0
 41 43  1  0
 15 19  2  0
 42 43  2  0
 16 22  2  0
 12 17  1  6
 17 19  1  0
 17 20  1  0
 18 19  1  0
 18 22  1  0
 18 23  1  0
  9 10  1  0
  9 11  1  0
 10 12  1  0
 11  5  1  6
 33 34  1  0
 33 35  1  0
 34 36  1  0
 35 37  1  0
 37 43  1  6
 20 21  2  0
 21 22  1  0
M  CHG  3   2  -1  26  -1  41  -1
M  END
>  <COMPND>  (17) 
    udp_gluA.pdb 

>  <AUTHOR>  (17) 
    GENERATED BY OPEN BABEL 3.1.1

>  <MASTER>  (17) 
        0    0    0    0    0    0    0    0   56    0   56    0

>  <minimizedAffinity>  (17) 
-7.06219

>  <CNNscore>  (17) 
0.3167409301

>  <CNNaffinity>  (17) 
3.8170161247

>  <CNN_VS>  (17) 
1.2090052366

>  <CNNaffinity_variance>  (17) 
0.4163298011

$$$$
18
     RDKit          3D

 43 45  0  0  0  0  0  0  0  0999 V2000
   19.4300   71.5177   -2.0587 P   0  0  2  0  0  0  0  0  0  0  0  0
   18.0597   72.1984   -2.5856 O   0  0  0  0  0  0  0  0  0  0  0  0
   19.3863   70.0233   -1.9297 O   0  0  0  0  0  0  0  0  0  0  0  0
   19.7708   72.3303   -0.7017 O   0  0  0  0  0  0  0  0  0  0  0  0
   20.6940   73.4017   -0.7690 C   0  0  0  0  0  0  0  0  0  0  0  0
   22.6409   74.1315    0.4371 O   0  0  0  0  0  0  0  0  0  0  0  0
   23.0371   71.2512    1.1710 O   0  0  0  0  0  0  0  0  0  0  0  0
   21.9172   72.2927    3.4287 O   0  0  0  0  0  0  0  0  0  0  0  0
   21.8225   71.9860    1.0185 C   0  0  1  0  0  0  0  0  0  0  0  0
   21.6208   72.9156    2.1963 C   0  0  2  0  0  0  0  0  0  0  0  0
   22.0074   72.9655   -0.1325 C   0  0  1  0  0  0  0  0  0  0  0  0
   22.5768   74.0503    1.8698 C   0  0  2  0  0  0  0  0  0  0  0  0
   22.9433   70.6187    1.9009 H   0  0  0  0  0  0  0  0  0  0  0  0
   21.2809   71.5780    3.5909 H   0  0  0  0  0  0  0  0  0  0  0  0
   24.2472   76.2899    2.2825 O   0  0  0  0  0  0  0  0  0  0  0  0
   20.7481   78.8367    3.8683 O   0  0  0  0  0  0  0  0  0  0  0  0
   22.1284   75.3112    2.3894 N   0  0  0  0  0  0  0  0  0  0  0  0
   22.5030   77.5559    3.0729 N   0  0  0  0  0  0  0  0  0  0  0  0
   23.0488   76.3725    2.5585 C   0  0  0  0  0  0  0  0  0  0  0  0
   20.7912   75.4877    2.7236 C   0  0  0  0  0  0  0  0  0  0  0  0
   20.2857   76.6217    3.2128 C   0  0  0  0  0  0  0  0  0  0  0  0
   21.1806   77.7790    3.4206 C   0  0  0  0  0  0  0  0  0  0  0  0
   23.1250   78.3083    3.2013 H   0  0  0  0  0  0  0  0  0  0  0  0
   20.5345   72.0715   -3.1010 O   0  0  0  0  0  0  0  0  0  0  0  0
   20.3842   73.0158   -4.4046 P   0  0  2  0  0  0  0  0  0  0  0  0
   21.8185   72.8629   -5.1393 O   0  0  0  0  0  0  0  0  0  0  0  0
   19.9949   74.4327   -4.0970 O   0  0  0  0  0  0  0  0  0  0  0  0
   19.3504   72.2302   -5.3620 O   0  0  0  0  0  0  0  0  0  0  0  0
   18.8416   69.9187   -5.2768 O   0  0  0  0  0  0  0  0  0  0  0  0
   18.0547   70.8075   -9.2340 O   0  0  0  0  0  0  0  0  0  0  0  0
   20.4160   71.9064   -7.9107 O   0  0  0  0  0  0  0  0  0  0  0  0
   15.8648   70.4358   -7.3586 O   0  0  0  0  0  0  0  0  0  0  0  0
   18.1415   71.0659   -7.8327 C   0  0  2  0  0  0  0  0  0  0  0  0
   19.5867   70.8856   -7.3675 C   0  0  2  0  0  0  0  0  0  0  0  0
   17.2230   70.0768   -7.1116 C   0  0  1  0  0  0  0  0  0  0  0  0
   19.6796   70.9278   -5.8416 C   0  0  1  0  0  0  0  0  0  0  0  0
   17.4645   70.0889   -5.6050 C   0  0  1  0  0  0  0  0  0  0  0  0
   18.6304   71.4243   -9.7129 H   0  0  0  0  0  0  0  0  0  0  0  0
   20.3617   71.8856   -8.8786 H   0  0  0  0  0  0  0  0  0  0  0  0
   15.6980   70.4320   -8.3141 H   0  0  0  0  0  0  0  0  0  0  0  0
   15.4711   69.0721   -4.9021 O   0  0  0  0  0  0  0  0  0  0  0  0
   17.4091   67.9307   -4.5277 O   0  0  0  0  0  0  0  0  0  0  0  0
   16.8164   68.9103   -4.9543 C   0  0  0  0  0  0  0  0  0  0  0  0
  1  4  1  0
  1 24  1  0
  1  2  1  6
  1  3  2  0
 25 28  1  0
 25 24  1  0
 25 26  1  6
 25 27  2  0
  6 11  1  0
  6 12  1  0
 29 36  1  0
 29 37  1  0
  9  7  1  1
  7 13  1  0
 10  8  1  1
  8 14  1  0
  4  5  1  0
 36 28  1  1
 33 30  1  6
 30 38  1  0
 34 31  1  6
 31 39  1  0
 35 32  1  1
 32 40  1  0
 41 43  1  0
 15 19  2  0
 42 43  2  0
 16 22  2  0
 12 17  1  1
 17 19  1  0
 17 20  1  0
 18 19  1  0
 18 22  1  0
 18 23  1  0
  9 10  1  0
  9 11  1  0
 10 12  1  0
 11  5  1  1
 33 34  1  0
 33 35  1  0
 34 36  1  0
 35 37  1  0
 37 43  1  1
 20 21  2  0
 21 22  1  0
M  CHG  3   2  -1  26  -1  41  -1
M  END
>  <COMPND>  (18) 
    udp_gluA.pdb 

>  <AUTHOR>  (18) 
    GENERATED BY OPEN BABEL 3.1.1

>  <MASTER>  (18) 
        0    0    0    0    0    0    0    0   56    0   56    0

>  <minimizedAffinity>  (18) 
-7.48093

>  <CNNscore>  (18) 
0.3160527647

>  <CNNaffinity>  (18) 
3.9812443256

>  <CNN_VS>  (18) 
1.2582832575

>  <CNNaffinity_variance>  (18) 
0.0547936372

$$$$
19
     RDKit          3D

 43 45  0  0  0  0  0  0  0  0999 V2000
   22.8490   74.2167   -5.1212 P   0  0  2  0  0  0  0  0  0  0  0  0
   23.9420   75.3960   -5.3041 O   0  0  0  0  0  0  0  0  0  0  0  0
   23.2460   72.8898   -5.6987 O   0  0  0  0  0  0  0  0  0  0  0  0
   21.4839   74.8578   -5.7070 O   0  0  0  0  0  0  0  0  0  0  0  0
   20.2946   74.0924   -5.6408 C   0  0  0  0  0  0  0  0  0  0  0  0
   19.9525   71.9703   -6.7166 O   0  0  0  0  0  0  0  0  0  0  0  0
   18.9633   73.5354   -9.0753 O   0  0  0  0  0  0  0  0  0  0  0  0
   16.6482   72.6998   -7.9013 O   0  0  0  0  0  0  0  0  0  0  0  0
   18.8038   73.8031   -7.6819 C   0  0  1  0  0  0  0  0  0  0  0  0
   17.7859   72.8578   -7.0797 C   0  0  2  0  0  0  0  0  0  0  0  0
   20.0851   73.3851   -6.9735 C   0  0  1  0  0  0  0  0  0  0  0  0
   18.5895   71.5761   -6.9407 C   0  0  2  0  0  0  0  0  0  0  0  0
   18.1569   73.7944   -9.5490 H   0  0  0  0  0  0  0  0  0  0  0  0
   16.1706   73.5428   -7.9580 H   0  0  0  0  0  0  0  0  0  0  0  0
   16.3182   69.8984   -6.9977 O   0  0  0  0  0  0  0  0  0  0  0  0
   16.9941   68.5296   -2.6487 O   0  0  0  0  0  0  0  0  0  0  0  0
   18.1491   70.7702   -5.8373 N   0  0  0  0  0  0  0  0  0  0  0  0
   16.6564   69.2190   -4.8313 N   0  0  0  0  0  0  0  0  0  0  0  0
   16.9949   69.9624   -5.9696 C   0  0  0  0  0  0  0  0  0  0  0  0
   18.8579   70.7836   -4.6422 C   0  0  0  0  0  0  0  0  0  0  0  0
   18.5231   70.0694   -3.5658 C   0  0  0  0  0  0  0  0  0  0  0  0
   17.3296   69.1999   -3.6205 C   0  0  0  0  0  0  0  0  0  0  0  0
   15.8554   68.6506   -4.8986 H   0  0  0  0  0  0  0  0  0  0  0  0
   22.5901   74.2062   -3.5256 O   0  0  0  0  0  0  0  0  0  0  0  0
   22.4995   75.4160   -2.4571 P   0  0  2  0  0  0  0  0  0  0  0  0
   20.9968   75.9810   -2.6645 O   0  0  0  0  0  0  0  0  0  0  0  0
   23.5758   76.4519   -2.6070 O   0  0  0  0  0  0  0  0  0  0  0  0
   22.4660   74.6889   -1.0174 O   0  0  0  0  0  0  0  0  0  0  0  0
   20.8706   72.9428   -0.8955 O   0  0  0  0  0  0  0  0  0  0  0  0
   22.1176   73.2181    3.0336 O   0  0  0  0  0  0  0  0  0  0  0  0
   21.6300   75.6321    1.4620 O   0  0  0  0  0  0  0  0  0  0  0  0
   23.0457   71.0314    1.3580 O   0  0  0  0  0  0  0  0  0  0  0  0
   22.2547   73.2927    1.6146 C   0  0  2  0  0  0  0  0  0  0  0  0
   21.2658   74.3172    1.0579 C   0  0  2  0  0  0  0  0  0  0  0  0
   21.9647   71.9052    1.0379 C   0  0  1  0  0  0  0  0  0  0  0  0
   21.2207   74.2602   -0.4696 C   0  0  1  0  0  0  0  0  0  0  0  0
   21.8097   71.9538   -0.4794 C   0  0  1  0  0  0  0  0  0  0  0  0
   22.2972   74.0888    3.4222 H   0  0  0  0  0  0  0  0  0  0  0  0
   21.6608   75.6754    2.4303 H   0  0  0  0  0  0  0  0  0  0  0  0
   23.1551   70.9917    2.3209 H   0  0  0  0  0  0  0  0  0  0  0  0
   21.8958   70.2337   -2.0717 O   0  0  0  0  0  0  0  0  0  0  0  0
   20.2379   70.1235   -0.5102 O   0  0  0  0  0  0  0  0  0  0  0  0
   21.2101   70.6850   -0.9923 C   0  0  0  0  0  0  0  0  0  0  0  0
  1  4  1  0
  1 24  1  0
  1  2  1  1
  1  3  2  0
 25 28  1  0
 25 24  1  0
 25 26  1  6
 25 27  2  0
  6 11  1  0
  6 12  1  0
 29 36  1  0
 29 37  1  0
  9  7  1  6
  7 13  1  0
 10  8  1  6
  8 14  1  0
  4  5  1  0
 36 28  1  6
 33 30  1  1
 30 38  1  0
 34 31  1  6
 31 39  1  0
 35 32  1  6
 32 40  1  0
 41 43  1  0
 15 19  2  0
 42 43  2  0
 16 22  2  0
 12 17  1  1
 17 19  1  0
 17 20  1  0
 18 19  1  0
 18 22  1  0
 18 23  1  0
  9 10  1  0
  9 11  1  0
 10 12  1  0
 11  5  1  1
 33 34  1  0
 33 35  1  0
 34 36  1  0
 35 37  1  0
 37 43  1  1
 20 21  2  0
 21 22  1  0
M  CHG  3   2  -1  26  -1  41  -1
M  END
>  <COMPND>  (19) 
    udp_gluA.pdb 

>  <AUTHOR>  (19) 
    GENERATED BY OPEN BABEL 3.1.1

>  <MASTER>  (19) 
        0    0    0    0    0    0    0    0   56    0   56    0

>  <minimizedAffinity>  (19) 
-7.21696

>  <CNNscore>  (19) 
0.3147285581

>  <CNNaffinity>  (19) 
4.0515260696

>  <CNN_VS>  (19) 
1.2751309872

>  <CNNaffinity_variance>  (19) 
0.3706046939

$$$$
20
     RDKit          3D

 43 45  0  0  0  0  0  0  0  0999 V2000
   20.4735   70.2822   -1.7013 P   0  0  2  0  0  0  0  0  0  0  0  0
   20.0957   69.1932   -0.5653 O   0  0  0  0  0  0  0  0  0  0  0  0
   21.2315   69.7358   -2.8755 O   0  0  0  0  0  0  0  0  0  0  0  0
   21.2105   71.4635   -0.8772 O   0  0  0  0  0  0  0  0  0  0  0  0
   20.9966   71.5485    0.5198 C   0  0  0  0  0  0  0  0  0  0  0  0
   21.5164   73.8865    0.3164 O   0  0  0  0  0  0  0  0  0  0  0  0
   22.6170   73.6932    3.0990 O   0  0  0  0  0  0  0  0  0  0  0  0
   20.1712   74.8294    3.5032 O   0  0  0  0  0  0  0  0  0  0  0  0
   21.4877   73.0337    2.5261 C   0  0  1  0  0  0  0  0  0  0  0  0
   20.3376   74.0056    2.3681 C   0  0  2  0  0  0  0  0  0  0  0  0
   21.8232   72.6992    1.0791 C   0  0  1  0  0  0  0  0  0  0  0  0
   20.7529   74.7877    1.1337 C   0  0  2  0  0  0  0  0  0  0  0  0
   22.4263   73.9170    4.0239 H   0  0  0  0  0  0  0  0  0  0  0  0
   19.9068   74.2849    4.2618 H   0  0  0  0  0  0  0  0  0  0  0  0
   19.4479   77.2500    1.5926 O   0  0  0  0  0  0  0  0  0  0  0  0
   16.4408   76.5007   -1.8191 O   0  0  0  0  0  0  0  0  0  0  0  0
   19.6264   75.2609    0.3801 N   0  0  0  0  0  0  0  0  0  0  0  0
   17.9508   76.8740   -0.1064 N   0  0  0  0  0  0  0  0  0  0  0  0
   19.0442   76.5124    0.6916 C   0  0  0  0  0  0  0  0  0  0  0  0
   19.1109   74.4899   -0.6547 C   0  0  0  0  0  0  0  0  0  0  0  0
   18.0682   74.8480   -1.4066 C   0  0  0  0  0  0  0  0  0  0  0  0
   17.4019   76.1408   -1.1460 C   0  0  0  0  0  0  0  0  0  0  0  0
   17.5275   77.7403    0.0929 H   0  0  0  0  0  0  0  0  0  0  0  0
   19.0411   70.9347   -2.0691 O   0  0  0  0  0  0  0  0  0  0  0  0
   18.1293   70.8132   -3.3986 P   0  0  2  0  0  0  0  0  0  0  0  0
   16.8476   71.7398   -3.0540 O   0  0  0  0  0  0  0  0  0  0  0  0
   17.7873   69.4031   -3.7840 O   0  0  0  0  0  0  0  0  0  0  0  0
   18.9369   71.6381   -4.5255 O   0  0  0  0  0  0  0  0  0  0  0  0
   20.6248   73.1631   -3.8665 O   0  0  0  0  0  0  0  0  0  0  0  0
   19.8998   74.3422   -7.7590 O   0  0  0  0  0  0  0  0  0  0  0  0
   17.6850   73.6475   -5.9852 O   0  0  0  0  0  0  0  0  0  0  0  0
   22.2905   72.8178   -7.1174 O   0  0  0  0  0  0  0  0  0  0  0  0
   20.0001   73.4199   -6.6740 C   0  0  2  0  0  0  0  0  0  0  0  0
   19.0319   73.8288   -5.5636 C   0  0  2  0  0  0  0  0  0  0  0  0
   21.4415   73.4487   -6.1606 C   0  0  1  0  0  0  0  0  0  0  0  0
   19.2725   73.0056   -4.2974 C   0  0  1  0  0  0  0  0  0  0  0  0
   21.5739   72.7126   -4.8305 C   0  0  1  0  0  0  0  0  0  0  0  0
   18.9921   74.3411   -8.1017 H   0  0  0  0  0  0  0  0  0  0  0  0
   17.5254   74.1669   -6.7885 H   0  0  0  0  0  0  0  0  0  0  0  0
   22.2155   73.2767   -7.9686 H   0  0  0  0  0  0  0  0  0  0  0  0
   22.6975   73.4571   -2.9109 O   0  0  0  0  0  0  0  0  0  0  0  0
   23.9767   72.8984   -4.7139 O   0  0  0  0  0  0  0  0  0  0  0  0
   22.8838   73.0212   -4.1815 C   0  0  0  0  0  0  0  0  0  0  0  0
  1  4  1  0
  1 24  1  0
  1  2  1  1
  1  3  2  0
 25 28  1  0
 25 24  1  0
 25 26  1  1
 25 27  2  0
  6 11  1  0
  6 12  1  0
 29 36  1  0
 29 37  1  0
  9  7  1  6
  7 13  1  0
 10  8  1  1
  8 14  1  0
  4  5  1  0
 36 28  1  6
 33 30  1  6
 30 38  1  0
 34 31  1  6
 31 39  1  0
 35 32  1  6
 32 40  1  0
 41 43  1  0
 15 19  2  0
 42 43  2  0
 16 22  2  0
 12 17  1  6
 17 19  1  0
 17 20  1  0
 18 19  1  0
 18 22  1  0
 18 23  1  0
  9 10  1  0
  9 11  1  0
 10 12  1  0
 11  5  1  6
 33 34  1  0
 33 35  1  0
 34 36  1  0
 35 37  1  0
 37 43  1  1
 20 21  2  0
 21 22  1  0
M  CHG  3   2  -1  26  -1  41  -1
M  END
>  <COMPND>  (20) 
    udp_gluA.pdb 

>  <AUTHOR>  (20) 
    GENERATED BY OPEN BABEL 3.1.1

>  <MASTER>  (20) 
        0    0    0    0    0    0    0    0   56    0   56    0

>  <minimizedAffinity>  (20) 
-6.27950

>  <CNNscore>  (20) 
0.3019954562

>  <CNNaffinity>  (20) 
3.6949455738

>  <CNN_VS>  (20) 
1.1158567667

>  <CNNaffinity_variance>  (20) 
0.4469464421

$$$$
21
     RDKit          3D

 43 45  0  0  0  0  0  0  0  0999 V2000
   21.4994   70.3327   -2.3885 P   0  0  2  0  0  0  0  0  0  0  0  0
   22.9492   69.7332   -2.7854 O   0  0  0  0  0  0  0  0  0  0  0  0
   20.9259   69.8066   -1.1054 O   0  0  0  0  0  0  0  0  0  0  0  0
   20.6018   70.0872   -3.7121 O   0  0  0  0  0  0  0  0  0  0  0  0
   19.4142   69.3257   -3.5920 C   0  0  0  0  0  0  0  0  0  0  0  0
   18.3115   71.1484   -4.7053 O   0  0  0  0  0  0  0  0  0  0  0  0
   15.8763   70.3955   -3.1260 O   0  0  0  0  0  0  0  0  0  0  0  0
   15.3612   69.3047   -5.5715 O   0  0  0  0  0  0  0  0  0  0  0  0
   16.8824   69.5547   -3.6912 C   0  0  1  0  0  0  0  0  0  0  0  0
   16.7117   69.4703   -5.1932 C   0  0  2  0  0  0  0  0  0  0  0  0
   18.2199   70.2708   -3.5623 C   0  0  1  0  0  0  0  0  0  0  0  0
   17.2887   70.7989   -5.6514 C   0  0  2  0  0  0  0  0  0  0  0  0
   15.0125   69.9591   -3.1967 H   0  0  0  0  0  0  0  0  0  0  0  0
   15.0405   68.4443   -5.2571 H   0  0  0  0  0  0  0  0  0  0  0  0
   15.8089   70.7937   -8.0569 O   0  0  0  0  0  0  0  0  0  0  0  0
   19.6285   70.4959  -10.6194 O   0  0  0  0  0  0  0  0  0  0  0  0
   17.8711   70.7209   -6.9612 N   0  0  0  0  0  0  0  0  0  0  0  0
   17.7126   70.6443   -9.3308 N   0  0  0  0  0  0  0  0  0  0  0  0
   17.0385   70.7252   -8.1052 C   0  0  0  0  0  0  0  0  0  0  0  0
   19.2512   70.6430   -7.1030 C   0  0  0  0  0  0  0  0  0  0  0  0
   19.8793   70.5666   -8.2780 C   0  0  0  0  0  0  0  0  0  0  0  0
   19.0825   70.5645   -9.5224 C   0  0  0  0  0  0  0  0  0  0  0  0
   17.1540   70.6436  -10.1415 H   0  0  0  0  0  0  0  0  0  0  0  0
   21.7489   71.9296   -2.4097 O   0  0  0  0  0  0  0  0  0  0  0  0
   20.7875   73.1598   -1.9901 P   0  0  2  0  0  0  0  0  0  0  0  0
   19.3267   72.4698   -1.8890 O   0  0  0  0  0  0  0  0  0  0  0  0
   20.8524   74.3369   -2.9197 O   0  0  0  0  0  0  0  0  0  0  0  0
   21.1884   73.4900   -0.4628 O   0  0  0  0  0  0  0  0  0  0  0  0
   23.2183   74.5093    0.2080 O   0  0  0  0  0  0  0  0  0  0  0  0
   22.1303   72.4697    3.6320 O   0  0  0  0  0  0  0  0  0  0  0  0
   21.8372   71.2200    1.0077 O   0  0  0  0  0  0  0  0  0  0  0  0
   21.7845   75.3520    3.4785 O   0  0  0  0  0  0  0  0  0  0  0  0
   21.9111   73.1914    2.4199 C   0  0  2  0  0  0  0  0  0  0  0  0
   22.5408   72.4325    1.2515 C   0  0  2  0  0  0  0  0  0  0  0  0
   22.5562   74.5712    2.5679 C   0  0  1  0  0  0  0  0  0  0  0  0
   22.5285   73.2801   -0.0214 C   0  0  1  0  0  0  0  0  0  0  0  0
   22.6196   75.3028    1.2303 C   0  0  1  0  0  0  0  0  0  0  0  0
   21.7289   71.5892    3.5614 H   0  0  0  0  0  0  0  0  0  0  0  0
   21.8408   70.6774    1.8114 H   0  0  0  0  0  0  0  0  0  0  0  0
   21.7362   74.8973    4.3339 H   0  0  0  0  0  0  0  0  0  0  0  0
   24.3184   76.4036    2.4152 O   0  0  0  0  0  0  0  0  0  0  0  0
   23.5682   77.3998    0.5062 O   0  0  0  0  0  0  0  0  0  0  0  0
   23.5304   76.4842    1.3145 C   0  0  0  0  0  0  0  0  0  0  0  0
  1  4  1  0
  1 24  1  0
  1  2  1  6
  1  3  2  0
 25 28  1  0
 25 24  1  0
 25 26  1  1
 25 27  2  0
  6 11  1  0
  6 12  1  0
 29 36  1  0
 29 37  1  0
  9  7  1  1
  7 13  1  0
 10  8  1  1
  8 14  1  0
  4  5  1  0
 36 28  1  1
 33 30  1  1
 30 38  1  0
 34 31  1  6
 31 39  1  0
 35 32  1  1
 32 40  1  0
 41 43  1  0
 15 19  2  0
 42 43  2  0
 16 22  2  0
 12 17  1  6
 17 19  1  0
 17 20  1  0
 18 19  1  0
 18 22  1  0
 18 23  1  0
  9 10  1  0
  9 11  1  0
 10 12  1  0
 11  5  1  6
 33 34  1  0
 33 35  1  0
 34 36  1  0
 35 37  1  0
 37 43  1  1
 20 21  2  0
 21 22  1  0
M  CHG  3   2  -1  26  -1  41  -1
M  END
>  <COMPND>  (21) 
    udp_gluA.pdb 

>  <AUTHOR>  (21) 
    GENERATED BY OPEN BABEL 3.1.1

>  <MASTER>  (21) 
        0    0    0    0    0    0    0    0   56    0   56    0

>  <minimizedAffinity>  (21) 
-7.83070

>  <CNNscore>  (21) 
0.8791046739

>  <CNNaffinity>  (21) 
4.7115168571

>  <CNN_VS>  (21) 
4.1419162750

>  <CNNaffinity_variance>  (21) 
0.0329050645

$$$$
22
     RDKit          3D

 43 45  0  0  0  0  0  0  0  0999 V2000
   21.0792   70.1107   -2.2467 P   0  0  2  0  0  0  0  0  0  0  0  0
   20.7203   71.6806   -2.4061 O   0  0  0  0  0  0  0  0  0  0  0  0
   21.8280   69.5117   -3.4010 O   0  0  0  0  0  0  0  0  0  0  0  0
   19.6580   69.4208   -1.8972 O   0  0  0  0  0  0  0  0  0  0  0  0
   18.8203   69.0195   -2.9657 C   0  0  0  0  0  0  0  0  0  0  0  0
   17.9487   70.9448   -4.1106 O   0  0  0  0  0  0  0  0  0  0  0  0
   15.2682   70.1403   -3.0339 O   0  0  0  0  0  0  0  0  0  0  0  0
   15.1707   69.2426   -5.6070 O   0  0  0  0  0  0  0  0  0  0  0  0
   16.3467   69.3179   -3.4801 C   0  0  1  0  0  0  0  0  0  0  0  0
   16.4373   69.3467   -4.9912 C   0  0  2  0  0  0  0  0  0  0  0  0
   17.6502   69.9892   -3.0699 C   0  0  1  0  0  0  0  0  0  0  0  0
   17.1007   70.6902   -5.2418 C   0  0  2  0  0  0  0  0  0  0  0  0
   14.4244   69.7318   -3.2847 H   0  0  0  0  0  0  0  0  0  0  0  0
   14.7901   68.3699   -5.4182 H   0  0  0  0  0  0  0  0  0  0  0  0
   16.0522   70.7146   -7.8641 O   0  0  0  0  0  0  0  0  0  0  0  0
   20.2609   70.6989   -9.7429 O   0  0  0  0  0  0  0  0  0  0  0  0
   17.8999   70.6928   -6.4343 N   0  0  0  0  0  0  0  0  0  0  0  0
   18.1494   70.7057   -8.7974 N   0  0  0  0  0  0  0  0  0  0  0  0
   17.2741   70.7052   -7.7033 C   0  0  0  0  0  0  0  0  0  0  0  0
   19.2862   70.6848   -6.3403 C   0  0  0  0  0  0  0  0  0  0  0  0
   20.1074   70.6855   -7.3921 C   0  0  0  0  0  0  0  0  0  0  0  0
   19.5342   70.6973   -8.7540 C   0  0  0  0  0  0  0  0  0  0  0  0
   17.7370   70.7122   -9.6913 H   0  0  0  0  0  0  0  0  0  0  0  0
   21.8649   70.0596   -0.8351 O   0  0  0  0  0  0  0  0  0  0  0  0
   23.1387   70.8980   -0.2983 P   0  0  2  0  0  0  0  0  0  0  0  0
   23.8619   71.3855   -1.6620 O   0  0  0  0  0  0  0  0  0  0  0  0
   24.0310   70.1323    0.6352 O   0  0  0  0  0  0  0  0  0  0  0  0
   22.5078   72.2428    0.3311 O   0  0  0  0  0  0  0  0  0  0  0  0
   22.3444   73.0430    2.5542 O   0  0  0  0  0  0  0  0  0  0  0  0
   18.7749   74.3411    0.9289 O   0  0  0  0  0  0  0  0  0  0  0  0
   19.7869   71.6659    0.3339 O   0  0  0  0  0  0  0  0  0  0  0  0
   20.9466   76.2224    1.3709 O   0  0  0  0  0  0  0  0  0  0  0  0
   20.1586   73.9902    0.9221 C   0  0  2  0  0  0  0  0  0  0  0  0
   20.3175   72.5267    1.3350 C   0  0  2  0  0  0  0  0  0  0  0  0
   20.8832   74.9044    1.9126 C   0  0  1  0  0  0  0  0  0  0  0  0
   21.7894   72.1789    1.5618 C   0  0  1  0  0  0  0  0  0  0  0  0
   22.3046   74.4188    2.1817 C   0  0  1  0  0  0  0  0  0  0  0  0
   18.2940   73.7730    0.3066 H   0  0  0  0  0  0  0  0  0  0  0  0
   18.8532   71.8812    0.1847 H   0  0  0  0  0  0  0  0  0  0  0  0
   20.0483   76.5431    1.1949 H   0  0  0  0  0  0  0  0  0  0  0  0
   21.9056   75.4493    4.2506 O   0  0  0  0  0  0  0  0  0  0  0  0
   24.0716   75.3306    3.5483 O   0  0  0  0  0  0  0  0  0  0  0  0
   22.8830   75.1064    3.3754 C   0  0  0  0  0  0  0  0  0  0  0  0
  1  4  1  0
  1 24  1  0
  1  2  1  6
  1  3  2  0
 25 28  1  0
 25 24  1  0
 25 26  1  6
 25 27  2  0
  6 11  1  0
  6 12  1  0
 29 36  1  0
 29 37  1  0
  9  7  1  6
  7 13  1  0
 10  8  1  6
  8 14  1  0
  4  5  1  0
 36 28  1  6
 33 30  1  1
 30 38  1  0
 34 31  1  6
 31 39  1  0
 35 32  1  6
 32 40  1  0
 41 43  1  0
 15 19  2  0
 42 43  2  0
 16 22  2  0
 12 17  1  6
 17 19  1  0
 17 20  1  0
 18 19  1  0
 18 22  1  0
 18 23  1  0
  9 10  1  0
  9 11  1  0
 10 12  1  0
 11  5  1  6
 33 34  1  0
 33 35  1  0
 34 36  1  0
 35 37  1  0
 37 43  1  1
 20 21  2  0
 21 22  1  0
M  CHG  3   2  -1  26  -1  41  -1
M  END
>  <COMPND>  (22) 
    udp_gluA.pdb 

>  <AUTHOR>  (22) 
    GENERATED BY OPEN BABEL 3.1.1

>  <MASTER>  (22) 
        0    0    0    0    0    0    0    0   56    0   56    0

>  <minimizedAffinity>  (22) 
-8.21160

>  <CNNscore>  (22) 
0.6646868587

>  <CNNaffinity>  (22) 
4.6013302803

>  <CNN_VS>  (22) 
3.0584437847

>  <CNNaffinity_variance>  (22) 
0.0091483621

$$$$
23
     RDKit          3D

 43 45  0  0  0  0  0  0  0  0999 V2000
   22.6123   73.4071   -5.5501 P   0  0  2  0  0  0  0  0  0  0  0  0
   23.2102   74.6435   -6.4060 O   0  0  0  0  0  0  0  0  0  0  0  0
   23.6308   72.6176   -4.7812 O   0  0  0  0  0  0  0  0  0  0  0  0
   21.7440   72.5712   -6.6295 O   0  0  0  0  0  0  0  0  0  0  0  0
   20.3570   72.8362   -6.7326 C   0  0  0  0  0  0  0  0  0  0  0  0
   19.4680   70.7017   -7.3894 O   0  0  0  0  0  0  0  0  0  0  0  0
   18.3155   72.1218   -9.7657 O   0  0  0  0  0  0  0  0  0  0  0  0
   16.1643   71.8965   -8.1051 O   0  0  0  0  0  0  0  0  0  0  0  0
   18.4740   72.5860   -8.4249 C   0  0  1  0  0  0  0  0  0  0  0  0
   17.4492   71.9350   -7.5203 C   0  0  2  0  0  0  0  0  0  0  0  0
   19.7806   72.0220   -7.8838 C   0  0  1  0  0  0  0  0  0  0  0  0
   18.0413   70.5506   -7.3180 C   0  0  2  0  0  0  0  0  0  0  0  0
   17.4872   72.4693  -10.1328 H   0  0  0  0  0  0  0  0  0  0  0  0
   15.8308   72.8016   -8.2128 H   0  0  0  0  0  0  0  0  0  0  0  0
   15.4629   69.6243   -6.6322 O   0  0  0  0  0  0  0  0  0  0  0  0
   16.8262   68.4081   -2.4006 O   0  0  0  0  0  0  0  0  0  0  0  0
   17.6947   69.9872   -6.0439 N   0  0  0  0  0  0  0  0  0  0  0  0
   16.1441   69.0204   -4.5249 N   0  0  0  0  0  0  0  0  0  0  0  0
   16.3703   69.5523   -5.8012 C   0  0  0  0  0  0  0  0  0  0  0  0
   18.6607   69.8685   -5.0521 C   0  0  0  0  0  0  0  0  0  0  0  0
   18.4301   69.3593   -3.8404 C   0  0  0  0  0  0  0  0  0  0  0  0
   17.0722   68.8823   -3.5055 C   0  0  0  0  0  0  0  0  0  0  0  0
   15.2290   68.7127   -4.3318 H   0  0  0  0  0  0  0  0  0  0  0  0
   21.4782   74.1115   -4.6387 O   0  0  0  0  0  0  0  0  0  0  0  0
   21.5977   74.9938   -3.2893 P   0  0  2  0  0  0  0  0  0  0  0  0
   20.3476   76.0158   -3.4036 O   0  0  0  0  0  0  0  0  0  0  0  0
   22.9291   75.6633   -3.1072 O   0  0  0  0  0  0  0  0  0  0  0  0
   21.1891   73.9820   -2.1012 O   0  0  0  0  0  0  0  0  0  0  0  0
   22.5003   73.4235   -0.2096 O   0  0  0  0  0  0  0  0  0  0  0  0
   20.1659   70.0424   -0.6423 O   0  0  0  0  0  0  0  0  0  0  0  0
   21.3301   71.3476   -2.9823 O   0  0  0  0  0  0  0  0  0  0  0  0
   19.5780   71.9623    1.4599 O   0  0  0  0  0  0  0  0  0  0  0  0
   20.4679   71.4357   -0.7163 C   0  0  2  0  0  0  0  0  0  0  0  0
   21.6713   71.6505   -1.6346 C   0  0  2  0  0  0  0  0  0  0  0  0
   20.7835   71.9270    0.6983 C   0  0  1  0  0  0  0  0  0  0  0  0
   22.1663   73.0955   -1.5588 C   0  0  1  0  0  0  0  0  0  0  0  0
   21.3898   73.3272    0.6795 C   0  0  1  0  0  0  0  0  0  0  0  0
   19.9621   69.7080   -1.5300 H   0  0  0  0  0  0  0  0  0  0  0  0
   21.0149   70.4322   -3.0377 H   0  0  0  0  0  0  0  0  0  0  0  0
   19.1819   71.0771    1.4796 H   0  0  0  0  0  0  0  0  0  0  0  0
   22.7633   74.7737    1.9134 O   0  0  0  0  0  0  0  0  0  0  0  0
   21.8154   73.0299    3.0357 O   0  0  0  0  0  0  0  0  0  0  0  0
   21.9914   73.6626    2.0053 C   0  0  0  0  0  0  0  0  0  0  0  0
  1  4  1  0
  1 24  1  0
  1  2  1  6
  1  3  2  0
 25 28  1  0
 25 24  1  0
 25 26  1  6
 25 27  2  0
  6 11  1  0
  6 12  1  0
 29 36  1  0
 29 37  1  0
  9  7  1  6
  7 13  1  0
 10  8  1  6
  8 14  1  0
  4  5  1  0
 36 28  1  1
 33 30  1  1
 30 38  1  0
 34 31  1  6
 31 39  1  0
 35 32  1  1
 32 40  1  0
 41 43  1  0
 15 19  2  0
 42 43  2  0
 16 22  2  0
 12 17  1  1
 17 19  1  0
 17 20  1  0
 18 19  1  0
 18 22  1  0
 18 23  1  0
  9 10  1  0
  9 11  1  0
 10 12  1  0
 11  5  1  1
 33 34  1  0
 33 35  1  0
 34 36  1  0
 35 37  1  0
 37 43  1  1
 20 21  2  0
 21 22  1  0
M  CHG  3   2  -1  26  -1  41  -1
M  END
>  <COMPND>  (23) 
    udp_gluA.pdb 

>  <AUTHOR>  (23) 
    GENERATED BY OPEN BABEL 3.1.1

>  <MASTER>  (23) 
        0    0    0    0    0    0    0    0   56    0   56    0

>  <minimizedAffinity>  (23) 
-7.77450

>  <CNNscore>  (23) 
0.5511232018

>  <CNNaffinity>  (23) 
4.2922067642

>  <CNN_VS>  (23) 
2.3655347824

>  <CNNaffinity_variance>  (23) 
0.3640391231

$$$$
24
     RDKit          3D

 43 45  0  0  0  0  0  0  0  0999 V2000
   23.1332   71.2030   -3.1131 P   0  0  2  0  0  0  0  0  0  0  0  0
   23.7863   72.3266   -4.0774 O   0  0  0  0  0  0  0  0  0  0  0  0
   23.9876   69.9910   -2.8834 O   0  0  0  0  0  0  0  0  0  0  0  0
   21.6807   70.9246   -3.7692 O   0  0  0  0  0  0  0  0  0  0  0  0
   20.9935   69.7393   -3.4123 C   0  0  0  0  0  0  0  0  0  0  0  0
   19.0183   70.9231   -4.1012 O   0  0  0  0  0  0  0  0  0  0  0  0
   17.5324   69.2084   -2.1408 O   0  0  0  0  0  0  0  0  0  0  0  0
   16.9816   68.0030   -4.5240 O   0  0  0  0  0  0  0  0  0  0  0  0
   18.6415   68.8735   -2.9751 C   0  0  1  0  0  0  0  0  0  0  0  0
   18.1901   68.7253   -4.4127 C   0  0  2  0  0  0  0  0  0  0  0  0
   19.5554   70.0889   -3.0519 C   0  0  1  0  0  0  0  0  0  0  0  0
   18.0482   70.1733   -4.8496 C   0  0  2  0  0  0  0  0  0  0  0  0
   16.9342   68.4470   -2.0765 H   0  0  0  0  0  0  0  0  0  0  0  0
   17.1241   67.0877   -4.2344 H   0  0  0  0  0  0  0  0  0  0  0  0
   16.0803   69.9666   -6.8648 O   0  0  0  0  0  0  0  0  0  0  0  0
   19.1352   70.8708  -10.1956 O   0  0  0  0  0  0  0  0  0  0  0  0
   18.3019   70.3501   -6.2515 N   0  0  0  0  0  0  0  0  0  0  0  0
   17.6039   70.4161   -8.5219 N   0  0  0  0  0  0  0  0  0  0  0  0
   17.2430   70.2247   -7.1817 C   0  0  0  0  0  0  0  0  0  0  0  0
   19.5862   70.6455   -6.6921 C   0  0  0  0  0  0  0  0  0  0  0  0
   19.9148   70.8253   -7.9729 C   0  0  0  0  0  0  0  0  0  0  0  0
   18.8672   70.7108   -9.0087 C   0  0  0  0  0  0  0  0  0  0  0  0
   16.8840   70.3318   -9.1882 H   0  0  0  0  0  0  0  0  0  0  0  0
   22.7740   72.0369   -1.7757 O   0  0  0  0  0  0  0  0  0  0  0  0
   21.6429   73.1574   -1.4953 P   0  0  2  0  0  0  0  0  0  0  0  0
   22.5070   74.4524   -1.0518 O   0  0  0  0  0  0  0  0  0  0  0  0
   20.5973   72.7417   -0.5014 O   0  0  0  0  0  0  0  0  0  0  0  0
   21.0675   73.5324   -2.9550 O   0  0  0  0  0  0  0  0  0  0  0  0
   21.1064   75.6913   -3.9281 O   0  0  0  0  0  0  0  0  0  0  0  0
   17.9153   73.9442   -5.8858 O   0  0  0  0  0  0  0  0  0  0  0  0
   18.2868   73.5505   -3.0150 O   0  0  0  0  0  0  0  0  0  0  0  0
   20.4617   74.2718   -7.2495 O   0  0  0  0  0  0  0  0  0  0  0  0
   19.1826   73.9754   -5.2293 C   0  0  2  0  0  0  0  0  0  0  0  0
   19.0067   74.4929   -3.8015 C   0  0  2  0  0  0  0  0  0  0  0  0
   20.1035   74.9052   -6.0227 C   0  0  1  0  0  0  0  0  0  0  0  0
   20.3621   74.7577   -3.1446 C   0  0  1  0  0  0  0  0  0  0  0  0
   21.3786   75.2216   -5.2465 C   0  0  1  0  0  0  0  0  0  0  0  0
   17.3133   73.3593   -5.3993 H   0  0  0  0  0  0  0  0  0  0  0  0
   17.4257   73.3776   -3.4262 H   0  0  0  0  0  0  0  0  0  0  0  0
   19.6590   74.0650   -7.7531 H   0  0  0  0  0  0  0  0  0  0  0  0
   22.5538   76.0386   -7.1047 O   0  0  0  0  0  0  0  0  0  0  0  0
   22.2785   77.4582   -5.3417 O   0  0  0  0  0  0  0  0  0  0  0  0
   22.1069   76.3688   -5.8677 C   0  0  0  0  0  0  0  0  0  0  0  0
  1  4  1  0
  1 24  1  0
  1  2  1  6
  1  3  2  0
 25 28  1  0
 25 24  1  0
 25 26  1  1
 25 27  2  0
  6 11  1  0
  6 12  1  0
 29 36  1  0
 29 37  1  0
  9  7  1  1
  7 13  1  0
 10  8  1  1
  8 14  1  0
  4  5  1  0
 36 28  1  6
 33 30  1  6
 30 38  1  0
 34 31  1  1
 31 39  1  0
 35 32  1  6
 32 40  1  0
 41 43  1  0
 15 19  2  0
 42 43  2  0
 16 22  2  0
 12 17  1  6
 17 19  1  0
 17 20  1  0
 18 19  1  0
 18 22  1  0
 18 23  1  0
  9 10  1  0
  9 11  1  0
 10 12  1  0
 11  5  1  6
 33 34  1  0
 33 35  1  0
 34 36  1  0
 35 37  1  0
 37 43  1  6
 20 21  2  0
 21 22  1  0
M  CHG  3   2  -1  26  -1  41  -1
M  END
>  <COMPND>  (24) 
    udp_gluA.pdb 

>  <AUTHOR>  (24) 
    GENERATED BY OPEN BABEL 3.1.1

>  <MASTER>  (24) 
        0    0    0    0    0    0    0    0   56    0   56    0

>  <minimizedAffinity>  (24) 
-6.55378

>  <CNNscore>  (24) 
0.5112053156

>  <CNNaffinity>  (24) 
4.2105841637

>  <CNN_VS>  (24) 
2.1524729729

>  <CNNaffinity_variance>  (24) 
0.3563804626

$$$$
25
     RDKit          3D

 43 45  0  0  0  0  0  0  0  0999 V2000
   19.6048   69.7545   -2.4675 P   0  0  2  0  0  0  0  0  0  0  0  0
   19.7917   69.3485   -0.9121 O   0  0  0  0  0  0  0  0  0  0  0  0
   20.4959   69.0197   -3.4256 O   0  0  0  0  0  0  0  0  0  0  0  0
   19.7494   71.3660   -2.4685 O   0  0  0  0  0  0  0  0  0  0  0  0
   18.6272   72.1458   -2.0982 C   0  0  0  0  0  0  0  0  0  0  0  0
   20.1125   72.6147   -0.2674 O   0  0  0  0  0  0  0  0  0  0  0  0
   19.5241   75.5108   -0.7751 O   0  0  0  0  0  0  0  0  0  0  0  0
   21.9601   75.1818   -1.9557 O   0  0  0  0  0  0  0  0  0  0  0  0
   19.6581   74.4388   -1.7086 C   0  0  1  0  0  0  0  0  0  0  0  0
   21.1147   74.0546   -1.8598 C   0  0  2  0  0  0  0  0  0  0  0  0
   19.0627   73.1882   -1.0764 C   0  0  1  0  0  0  0  0  0  0  0  0
   21.3601   73.2452   -0.5978 C   0  0  2  0  0  0  0  0  0  0  0  0
   19.8976   76.3210   -1.1569 H   0  0  0  0  0  0  0  0  0  0  0  0
   21.7652   75.6633   -2.7755 H   0  0  0  0  0  0  0  0  0  0  0  0
   22.3828   71.6184    1.4720 O   0  0  0  0  0  0  0  0  0  0  0  0
   25.1973   69.3922   -1.4205 O   0  0  0  0  0  0  0  0  0  0  0  0
   22.3607   72.2325   -0.7821 N   0  0  0  0  0  0  0  0  0  0  0  0
   23.7843   70.5118    0.0296 N   0  0  0  0  0  0  0  0  0  0  0  0
   22.8061   71.4707    0.3240 C   0  0  0  0  0  0  0  0  0  0  0  0
   22.8888   72.0012   -2.0465 C   0  0  0  0  0  0  0  0  0  0  0  0
   23.8207   71.0836   -2.3115 C   0  0  0  0  0  0  0  0  0  0  0  0
   24.3405   70.2456   -1.2111 C   0  0  0  0  0  0  0  0  0  0  0  0
   24.1115   69.9705    0.7840 H   0  0  0  0  0  0  0  0  0  0  0  0
   18.0228   69.5315   -2.7132 O   0  0  0  0  0  0  0  0  0  0  0  0
   17.2220   68.9026   -3.9689 P   0  0  2  0  0  0  0  0  0  0  0  0
   15.7904   69.6559   -3.9093 O   0  0  0  0  0  0  0  0  0  0  0  0
   17.1332   67.4039   -3.9545 O   0  0  0  0  0  0  0  0  0  0  0  0
   17.9519   69.5176   -5.2694 O   0  0  0  0  0  0  0  0  0  0  0  0
   18.8718   71.6752   -5.5979 O   0  0  0  0  0  0  0  0  0  0  0  0
   17.6133   70.7081   -9.4122 O   0  0  0  0  0  0  0  0  0  0  0  0
   15.9379   70.0927   -7.0995 O   0  0  0  0  0  0  0  0  0  0  0  0
   20.4382   70.5955   -8.7353 O   0  0  0  0  0  0  0  0  0  0  0  0
   18.1181   70.4504   -8.1020 C   0  0  2  0  0  0  0  0  0  0  0  0
   17.0992   70.9141   -7.0607 C   0  0  2  0  0  0  0  0  0  0  0  0
   19.4311   71.2199   -7.9413 C   0  0  1  0  0  0  0  0  0  0  0  0
   17.6955   70.8673   -5.6532 C   0  0  1  0  0  0  0  0  0  0  0  0
   19.8947   71.2331   -6.4875 C   0  0  1  0  0  0  0  0  0  0  0  0
   16.7788   70.2293   -9.5374 H   0  0  0  0  0  0  0  0  0  0  0  0
   15.5545   70.1174   -7.9898 H   0  0  0  0  0  0  0  0  0  0  0  0
   20.1554   70.5805   -9.6630 H   0  0  0  0  0  0  0  0  0  0  0  0
   20.5757   73.2047   -5.4149 O   0  0  0  0  0  0  0  0  0  0  0  0
   22.0727   72.2159   -6.8222 O   0  0  0  0  0  0  0  0  0  0  0  0
   20.9758   72.2442   -6.2846 C   0  0  0  0  0  0  0  0  0  0  0  0
  1  4  1  0
  1 24  1  0
  1  2  1  1
  1  3  2  0
 25 28  1  0
 25 24  1  0
 25 26  1  1
 25 27  2  0
  6 11  1  0
  6 12  1  0
 29 36  1  0
 29 37  1  0
  9  7  1  1
  7 13  1  0
 10  8  1  1
  8 14  1  0
  4  5  1  0
 36 28  1  6
 33 30  1  6
 30 38  1  0
 34 31  1  1
 31 39  1  0
 35 32  1  6
 32 40  1  0
 41 43  1  0
 15 19  2  0
 42 43  2  0
 16 22  2  0
 12 17  1  6
 17 19  1  0
 17 20  1  0
 18 19  1  0
 18 22  1  0
 18 23  1  0
  9 10  1  0
  9 11  1  0
 10 12  1  0
 11  5  1  6
 33 34  1  0
 33 35  1  0
 34 36  1  0
 35 37  1  0
 37 43  1  6
 20 21  2  0
 21 22  1  0
M  CHG  3   2  -1  26  -1  41  -1
M  END
>  <COMPND>  (25) 
    udp_gluA.pdb 

>  <AUTHOR>  (25) 
    GENERATED BY OPEN BABEL 3.1.1

>  <MASTER>  (25) 
        0    0    0    0    0    0    0    0   56    0   56    0

>  <minimizedAffinity>  (25) 
-8.36506

>  <CNNscore>  (25) 
0.5056686997

>  <CNNaffinity>  (25) 
4.3283967972

>  <CNN_VS>  (25) 
2.1887347698

>  <CNNaffinity_variance>  (25) 
0.2910830379

$$$$
26
     RDKit          3D

 43 45  0  0  0  0  0  0  0  0999 V2000
   19.2879   70.4551   -2.0169 P   0  0  2  0  0  0  0  0  0  0  0  0
   19.1796   71.8247   -1.1617 O   0  0  0  0  0  0  0  0  0  0  0  0
   19.4949   69.2131   -1.2005 O   0  0  0  0  0  0  0  0  0  0  0  0
   20.4325   70.7725   -3.1156 O   0  0  0  0  0  0  0  0  0  0  0  0
   20.9526   72.0873   -3.1896 C   0  0  0  0  0  0  0  0  0  0  0  0
   22.8391   73.0462   -2.0497 O   0  0  0  0  0  0  0  0  0  0  0  0
   24.3254   70.5532   -2.8029 O   0  0  0  0  0  0  0  0  0  0  0  0
   23.6738   70.0936   -0.1951 O   0  0  0  0  0  0  0  0  0  0  0  0
   22.9551   70.7118   -2.4342 C   0  0  1  0  0  0  0  0  0  0  0  0
   22.8377   70.9508   -0.9438 C   0  0  2  0  0  0  0  0  0  0  0  0
   22.4642   72.0337   -3.0086 C   0  0  1  0  0  0  0  0  0  0  0  0
   23.2410   72.4107   -0.8258 C   0  0  2  0  0  0  0  0  0  0  0  0
   24.6614   69.7153   -2.4470 H   0  0  0  0  0  0  0  0  0  0  0  0
   23.3759   69.1762   -0.3030 H   0  0  0  0  0  0  0  0  0  0  0  0
   23.6504   75.1163   -0.1266 O   0  0  0  0  0  0  0  0  0  0  0  0
   20.7198   74.8331    3.4196 O   0  0  0  0  0  0  0  0  0  0  0  0
   22.5978   73.0696    0.2756 N   0  0  0  0  0  0  0  0  0  0  0  0
   22.1912   74.9724    1.6396 N   0  0  0  0  0  0  0  0  0  0  0  0
   22.8730   74.4319    0.5414 C   0  0  0  0  0  0  0  0  0  0  0  0
   21.7050   72.3689    1.0774 C   0  0  0  0  0  0  0  0  0  0  0  0
   21.0627   72.8978    2.1207 C   0  0  0  0  0  0  0  0  0  0  0  0
   21.2947   74.3154    2.4668 C   0  0  0  0  0  0  0  0  0  0  0  0
   22.3681   75.9187    1.8455 H   0  0  0  0  0  0  0  0  0  0  0  0
   17.9298   70.4662   -2.8934 O   0  0  0  0  0  0  0  0  0  0  0  0
   17.3582   69.4129   -3.9785 P   0  0  2  0  0  0  0  0  0  0  0  0
   15.8095   69.8543   -4.1422 O   0  0  0  0  0  0  0  0  0  0  0  0
   17.5542   67.9729   -3.6015 O   0  0  0  0  0  0  0  0  0  0  0  0
   18.0530   69.8411   -5.3700 O   0  0  0  0  0  0  0  0  0  0  0  0
   18.9821   71.9328   -5.9789 O   0  0  0  0  0  0  0  0  0  0  0  0
   17.6754   70.4995   -9.6267 O   0  0  0  0  0  0  0  0  0  0  0  0
   16.0222   70.1945   -7.2374 O   0  0  0  0  0  0  0  0  0  0  0  0
   20.5069   70.4528   -8.9700 O   0  0  0  0  0  0  0  0  0  0  0  0
   18.1932   70.4062   -8.2996 C   0  0  2  0  0  0  0  0  0  0  0  0
   17.1888   71.0056   -7.3150 C   0  0  2  0  0  0  0  0  0  0  0  0
   19.5125   71.1801   -8.2513 C   0  0  1  0  0  0  0  0  0  0  0  0
   17.8004   71.1332   -5.9191 C   0  0  1  0  0  0  0  0  0  0  0  0
   19.9924   71.3740   -6.8158 C   0  0  1  0  0  0  0  0  0  0  0  0
   16.8366   70.0149   -9.6815 H   0  0  0  0  0  0  0  0  0  0  0  0
   15.6291   70.1090   -8.1197 H   0  0  0  0  0  0  0  0  0  0  0  0
   20.2137   70.3224   -9.8854 H   0  0  0  0  0  0  0  0  0  0  0  0
   20.5903   73.5960   -6.3611 O   0  0  0  0  0  0  0  0  0  0  0  0
   22.2562   72.1840   -7.0168 O   0  0  0  0  0  0  0  0  0  0  0  0
   21.0817   72.3947   -6.7539 C   0  0  0  0  0  0  0  0  0  0  0  0
  1  4  1  0
  1 24  1  0
  1  2  1  1
  1  3  2  0
 25 28  1  0
 25 24  1  0
 25 26  1  6
 25 27  2  0
  6 11  1  0
  6 12  1  0
 29 36  1  0
 29 37  1  0
  9  7  1  1
  7 13  1  0
 10  8  1  1
  8 14  1  0
  4  5  1  0
 36 28  1  6
 33 30  1  6
 30 38  1  0
 34 31  1  1
 31 39  1  0
 35 32  1  6
 32 40  1  0
 41 43  1  0
 15 19  2  0
 42 43  2  0
 16 22  2  0
 12 17  1  1
 17 19  1  0
 17 20  1  0
 18 19  1  0
 18 22  1  0
 18 23  1  0
  9 10  1  0
  9 11  1  0
 10 12  1  0
 11  5  1  1
 33 34  1  0
 33 35  1  0
 34 36  1  0
 35 37  1  0
 37 43  1  6
 20 21  2  0
 21 22  1  0
M  CHG  3   2  -1  26  -1  41  -1
M  END
>  <COMPND>  (26) 
    udp_gluA.pdb 

>  <AUTHOR>  (26) 
    GENERATED BY OPEN BABEL 3.1.1

>  <MASTER>  (26) 
        0    0    0    0    0    0    0    0   56    0   56    0

>  <minimizedAffinity>  (26) 
-8.35025

>  <CNNscore>  (26) 
0.4849301577

>  <CNNaffinity>  (26) 
4.3290848732

>  <CNN_VS>  (26) 
2.0993037224

>  <CNNaffinity_variance>  (26) 
0.1546656638

$$$$
27
     RDKit          3D

 43 45  0  0  0  0  0  0  0  0999 V2000
   17.6696   74.4146   -4.0386 P   0  0  2  0  0  0  0  0  0  0  0  0
   17.6170   72.8512   -3.6239 O   0  0  0  0  0  0  0  0  0  0  0  0
   16.3356   75.0990   -4.1001 O   0  0  0  0  0  0  0  0  0  0  0  0
   18.5281   74.4241   -5.4100 O   0  0  0  0  0  0  0  0  0  0  0  0
   17.9435   73.8766   -6.5775 C   0  0  0  0  0  0  0  0  0  0  0  0
   19.3793   71.9639   -6.3370 O   0  0  0  0  0  0  0  0  0  0  0  0
   19.4835   71.8984   -9.3331 O   0  0  0  0  0  0  0  0  0  0  0  0
   17.6800   69.9360   -8.7566 O   0  0  0  0  0  0  0  0  0  0  0  0
   18.3962   72.2424   -8.4740 C   0  0  1  0  0  0  0  0  0  0  0  0
   17.8188   70.9971   -7.8350 C   0  0  2  0  0  0  0  0  0  0  0  0
   18.9640   72.9836   -7.2714 C   0  0  1  0  0  0  0  0  0  0  0  0
   18.8380   70.6986   -6.7487 C   0  0  2  0  0  0  0  0  0  0  0  0
   19.1453   71.4237  -10.1089 H   0  0  0  0  0  0  0  0  0  0  0  0
   17.0204   70.1746   -9.4274 H   0  0  0  0  0  0  0  0  0  0  0  0
   20.3113   69.6100   -4.5991 O   0  0  0  0  0  0  0  0  0  0  0  0
   16.4828   68.2297   -2.4353 O   0  0  0  0  0  0  0  0  0  0  0  0
   18.2516   70.0491   -5.6107 N   0  0  0  0  0  0  0  0  0  0  0  0
   18.4031   68.9226   -3.5240 N   0  0  0  0  0  0  0  0  0  0  0  0
   19.0811   69.5365   -4.5854 C   0  0  0  0  0  0  0  0  0  0  0  0
   16.8706   69.9266   -5.5173 C   0  0  0  0  0  0  0  0  0  0  0  0
   16.2388   69.3390   -4.4993 C   0  0  0  0  0  0  0  0  0  0  0  0
   17.0322   68.7762   -3.3870 C   0  0  0  0  0  0  0  0  0  0  0  0
   18.9596   68.5562   -2.7991 H   0  0  0  0  0  0  0  0  0  0  0  0
   18.6989   75.0413   -2.9612 O   0  0  0  0  0  0  0  0  0  0  0  0
   18.5488   75.2922   -1.3712 P   0  0  2  0  0  0  0  0  0  0  0  0
   17.0556   74.7549   -1.0514 O   0  0  0  0  0  0  0  0  0  0  0  0
   18.8005   76.7095   -0.9450 O   0  0  0  0  0  0  0  0  0  0  0  0
   19.5272   74.2047   -0.6911 O   0  0  0  0  0  0  0  0  0  0  0  0
   19.2680   71.8645   -0.4351 O   0  0  0  0  0  0  0  0  0  0  0  0
   21.4062   72.8499    2.9598 O   0  0  0  0  0  0  0  0  0  0  0  0
   19.2071   74.5447    2.0508 O   0  0  0  0  0  0  0  0  0  0  0  0
   22.7340   71.5468    0.7260 O   0  0  0  0  0  0  0  0  0  0  0  0
   20.9958   72.9694    1.5977 C   0  0  2  0  0  0  0  0  0  0  0  0
   19.4938   73.2486    1.5384 C   0  0  2  0  0  0  0  0  0  0  0  0
   21.3209   71.6529    0.8885 C   0  0  1  0  0  0  0  0  0  0  0  0
   18.9762   73.1551    0.1023 C   0  0  1  0  0  0  0  0  0  0  0  0
   20.6651   71.5847   -0.4876 C   0  0  1  0  0  0  0  0  0  0  0  0
   21.2094   73.6750    3.4306 H   0  0  0  0  0  0  0  0  0  0  0  0
   19.5331   74.6111    2.9617 H   0  0  0  0  0  0  0  0  0  0  0  0
   23.1635   71.5890    1.5946 H   0  0  0  0  0  0  0  0  0  0  0  0
   21.8643   69.9760   -1.7024 O   0  0  0  0  0  0  0  0  0  0  0  0
   19.8287   69.3563   -0.8829 O   0  0  0  0  0  0  0  0  0  0  0  0
   20.7082   70.1921   -1.0273 C   0  0  0  0  0  0  0  0  0  0  0  0
  1  4  1  0
  1 24  1  0
  1  2  1  1
  1  3  2  0
 25 28  1  0
 25 24  1  0
 25 26  1  1
 25 27  2  0
  6 11  1  0
  6 12  1  0
 29 36  1  0
 29 37  1  0
  9  7  1  6
  7 13  1  0
 10  8  1  6
  8 14  1  0
  4  5  1  0
 36 28  1  6
 33 30  1  1
 30 38  1  0
 34 31  1  6
 31 39  1  0
 35 32  1  6
 32 40  1  0
 41 43  1  0
 15 19  2  0
 42 43  2  0
 16 22  2  0
 12 17  1  1
 17 19  1  0
 17 20  1  0
 18 19  1  0
 18 22  1  0
 18 23  1  0
  9 10  1  0
  9 11  1  0
 10 12  1  0
 11  5  1  1
 33 34  1  0
 33 35  1  0
 34 36  1  0
 35 37  1  0
 37 43  1  1
 20 21  2  0
 21 22  1  0
M  CHG  3   2  -1  26  -1  41  -1
M  END
>  <COMPND>  (27) 
    udp_gluA.pdb 

>  <AUTHOR>  (27) 
    GENERATED BY OPEN BABEL 3.1.1

>  <MASTER>  (27) 
        0    0    0    0    0    0    0    0   56    0   56    0

>  <minimizedAffinity>  (27) 
-7.29199

>  <CNNscore>  (27) 
0.4847292006

>  <CNNaffinity>  (27) 
4.1587495804

>  <CNN_VS>  (27) 
2.0158674717

>  <CNNaffinity_variance>  (27) 
0.6873589754

$$$$
28
     RDKit          3D

 43 45  0  0  0  0  0  0  0  0999 V2000
   23.1628   70.9641   -2.4925 P   0  0  2  0  0  0  0  0  0  0  0  0
   22.9962   71.7550   -3.8946 O   0  0  0  0  0  0  0  0  0  0  0  0
   24.5685   70.5609   -2.1557 O   0  0  0  0  0  0  0  0  0  0  0  0
   22.0916   69.7561   -2.5982 O   0  0  0  0  0  0  0  0  0  0  0  0
   21.2007   69.7368   -3.6984 C   0  0  0  0  0  0  0  0  0  0  0  0
   19.2322   71.0006   -4.2511 O   0  0  0  0  0  0  0  0  0  0  0  0
   17.8445   69.4217   -2.1128 O   0  0  0  0  0  0  0  0  0  0  0  0
   17.0260   68.1783   -4.3975 O   0  0  0  0  0  0  0  0  0  0  0  0
   18.8574   69.0063   -3.0292 C   0  0  1  0  0  0  0  0  0  0  0  0
   18.2734   68.8403   -4.4161 C   0  0  2  0  0  0  0  0  0  0  0  0
   19.8191   70.1703   -3.2257 C   0  0  1  0  0  0  0  0  0  0  0  0
   18.1641   70.2806   -4.8868 C   0  0  2  0  0  0  0  0  0  0  0  0
   17.2179   68.6943   -1.9714 H   0  0  0  0  0  0  0  0  0  0  0  0
   17.1488   67.2656   -4.0914 H   0  0  0  0  0  0  0  0  0  0  0  0
   16.0559   69.9087   -6.7289 O   0  0  0  0  0  0  0  0  0  0  0  0
   18.8026   70.7780  -10.3267 O   0  0  0  0  0  0  0  0  0  0  0  0
   18.3005   70.4037   -6.3105 N   0  0  0  0  0  0  0  0  0  0  0  0
   17.4262   70.3411   -8.5191 N   0  0  0  0  0  0  0  0  0  0  0  0
   17.1787   70.1964   -7.1476 C   0  0  0  0  0  0  0  0  0  0  0  0
   19.5334   70.7277   -6.8637 C   0  0  0  0  0  0  0  0  0  0  0  0
   19.7537   70.8622   -8.1730 C   0  0  0  0  0  0  0  0  0  0  0  0
   18.6345   70.6615   -9.1166 C   0  0  0  0  0  0  0  0  0  0  0  0
   16.6608   70.1996   -9.1220 H   0  0  0  0  0  0  0  0  0  0  0  0
   22.4761   71.9666   -1.4266 O   0  0  0  0  0  0  0  0  0  0  0  0
   21.9184   71.7064    0.0684 P   0  0  2  0  0  0  0  0  0  0  0  0
   23.1361   70.9164    0.7851 O   0  0  0  0  0  0  0  0  0  0  0  0
   20.6011   70.9879    0.1179 O   0  0  0  0  0  0  0  0  0  0  0  0
   21.9133   73.1626    0.7626 O   0  0  0  0  0  0  0  0  0  0  0  0
   20.0615   74.5223    1.3378 O   0  0  0  0  0  0  0  0  0  0  0  0
   22.9671   77.3504    0.5456 O   0  0  0  0  0  0  0  0  0  0  0  0
   22.6722   75.0080   -1.1751 O   0  0  0  0  0  0  0  0  0  0  0  0
   22.2265   76.7489    3.2916 O   0  0  0  0  0  0  0  0  0  0  0  0
   22.4606   76.0904    0.9859 C   0  0  2  0  0  0  0  0  0  0  0  0
   21.7417   75.3954   -0.1707 C   0  0  2  0  0  0  0  0  0  0  0  0
   21.4880   76.3484    2.1389 C   0  0  1  0  0  0  0  0  0  0  0  0
   20.9910   74.1557    0.3176 C   0  0  1  0  0  0  0  0  0  0  0  0
   20.6875   75.0958    2.4834 C   0  0  1  0  0  0  0  0  0  0  0  0
   23.5876   77.2114   -0.1872 H   0  0  0  0  0  0  0  0  0  0  0  0
   23.1523   75.7898   -1.4893 H   0  0  0  0  0  0  0  0  0  0  0  0
   22.7406   77.5452    3.0857 H   0  0  0  0  0  0  0  0  0  0  0  0
   19.9595   75.9382    4.5478 O   0  0  0  0  0  0  0  0  0  0  0  0
   18.3541   75.2783    3.0692 O   0  0  0  0  0  0  0  0  0  0  0  0
   19.5294   75.4323    3.3654 C   0  0  0  0  0  0  0  0  0  0  0  0
  1  4  1  0
  1 24  1  0
  1  2  1  6
  1  3  2  0
 25 28  1  0
 25 24  1  0
 25 26  1  1
 25 27  2  0
  6 11  1  0
  6 12  1  0
 29 36  1  0
 29 37  1  0
  9  7  1  1
  7 13  1  0
 10  8  1  1
  8 14  1  0
  4  5  1  0
 36 28  1  1
 33 30  1  6
 30 38  1  0
 34 31  1  6
 31 39  1  0
 35 32  1  1
 32 40  1  0
 41 43  1  0
 15 19  2  0
 42 43  2  0
 16 22  2  0
 12 17  1  6
 17 19  1  0
 17 20  1  0
 18 19  1  0
 18 22  1  0
 18 23  1  0
  9 10  1  0
  9 11  1  0
 10 12  1  0
 11  5  1  6
 33 34  1  0
 33 35  1  0
 34 36  1  0
 35 37  1  0
 37 43  1  1
 20 21  2  0
 21 22  1  0
M  CHG  3   2  -1  26  -1  41  -1
M  END
>  <COMPND>  (28) 
    udp_gluA.pdb 

>  <AUTHOR>  (28) 
    GENERATED BY OPEN BABEL 3.1.1

>  <MASTER>  (28) 
        0    0    0    0    0    0    0    0   56    0   56    0

>  <minimizedAffinity>  (28) 
-7.52994

>  <CNNscore>  (28) 
0.4797706306

>  <CNNaffinity>  (28) 
4.5446710587

>  <CNN_VS>  (28) 
2.1803996563

>  <CNNaffinity_variance>  (28) 
0.1089536101

$$$$
29
     RDKit          3D

 43 45  0  0  0  0  0  0  0  0999 V2000
   19.9445   73.1825   -3.6120 P   0  0  2  0  0  0  0  0  0  0  0  0
   20.4897   74.6342   -3.1493 O   0  0  0  0  0  0  0  0  0  0  0  0
   18.4938   73.1428   -3.9939 O   0  0  0  0  0  0  0  0  0  0  0  0
   20.3796   72.2004   -2.4020 O   0  0  0  0  0  0  0  0  0  0  0  0
   21.1331   71.0418   -2.7093 C   0  0  0  0  0  0  0  0  0  0  0  0
   22.7071   72.5224   -1.6566 O   0  0  0  0  0  0  0  0  0  0  0  0
   24.7123   70.3156   -1.9743 O   0  0  0  0  0  0  0  0  0  0  0  0
   23.9941   70.0952    0.6470 O   0  0  0  0  0  0  0  0  0  0  0  0
   23.3168   70.2336   -1.6841 C   0  0  1  0  0  0  0  0  0  0  0  0
   23.0542   70.6466   -0.2514 C   0  0  2  0  0  0  0  0  0  0  0  0
   22.6089   71.3311   -2.4669 C   0  0  1  0  0  0  0  0  0  0  0  0
   23.1463   72.1606   -0.3377 C   0  0  2  0  0  0  0  0  0  0  0  0
   25.1858   69.6240   -1.4854 H   0  0  0  0  0  0  0  0  0  0  0  0
   23.8951   69.1299    0.6664 H   0  0  0  0  0  0  0  0  0  0  0  0
   20.6844   71.1398    0.5971 O   0  0  0  0  0  0  0  0  0  0  0  0
   20.0271   74.7618    3.3707 O   0  0  0  0  0  0  0  0  0  0  0  0
   22.3113   72.8163    0.6287 N   0  0  0  0  0  0  0  0  0  0  0  0
   20.3589   72.9452    1.9768 N   0  0  0  0  0  0  0  0  0  0  0  0
   21.0935   72.2185    1.0307 C   0  0  0  0  0  0  0  0  0  0  0  0
   22.7015   74.0358    1.1686 C   0  0  0  0  0  0  0  0  0  0  0  0
   21.9907   74.7166    2.0698 C   0  0  0  0  0  0  0  0  0  0  0  0
   20.7052   74.1617    2.5423 C   0  0  0  0  0  0  0  0  0  0  0  0
   19.5063   72.5500    2.2706 H   0  0  0  0  0  0  0  0  0  0  0  0
   20.9642   72.7727   -4.7973 O   0  0  0  0  0  0  0  0  0  0  0  0
   21.0972   73.3102   -6.3162 P   0  0  2  0  0  0  0  0  0  0  0  0
   22.5206   72.7085   -6.7982 O   0  0  0  0  0  0  0  0  0  0  0  0
   20.9767   74.8002   -6.4549 O   0  0  0  0  0  0  0  0  0  0  0  0
   19.9980   72.4696   -7.1455 O   0  0  0  0  0  0  0  0  0  0  0  0
   19.2651   70.4347   -6.1806 O   0  0  0  0  0  0  0  0  0  0  0  0
   17.7930   70.1190  -10.0278 O   0  0  0  0  0  0  0  0  0  0  0  0
   20.4807   71.1601   -9.5514 O   0  0  0  0  0  0  0  0  0  0  0  0
   16.0029   70.7584   -7.8284 O   0  0  0  0  0  0  0  0  0  0  0  0
   18.1909   70.7973   -8.8363 C   0  0  2  0  0  0  0  0  0  0  0  0
   19.6716   70.5296   -8.5653 C   0  0  2  0  0  0  0  0  0  0  0  0
   17.3347   70.2690   -7.6831 C   0  0  1  0  0  0  0  0  0  0  0  0
   20.0769   71.0458   -7.1840 C   0  0  1  0  0  0  0  0  0  0  0  0
   17.8774   70.7254   -6.3319 C   0  0  1  0  0  0  0  0  0  0  0  0
   18.3238   70.4385  -10.7745 H   0  0  0  0  0  0  0  0  0  0  0  0
   20.2286   70.8374  -10.4305 H   0  0  0  0  0  0  0  0  0  0  0  0
   15.6458   70.4750   -8.6846 H   0  0  0  0  0  0  0  0  0  0  0  0
   18.1330   69.7640   -4.2078 O   0  0  0  0  0  0  0  0  0  0  0  0
   16.0979   69.5420   -5.2120 O   0  0  0  0  0  0  0  0  0  0  0  0
   17.2491   69.9513   -5.2191 C   0  0  0  0  0  0  0  0  0  0  0  0
  1  4  1  0
  1 24  1  0
  1  2  1  1
  1  3  2  0
 25 28  1  0
 25 24  1  0
 25 26  1  6
 25 27  2  0
  6 11  1  0
  6 12  1  0
 29 36  1  0
 29 37  1  0
  9  7  1  6
  7 13  1  0
 10  8  1  1
  8 14  1  0
  4  5  1  0
 36 28  1  6
 33 30  1  6
 30 38  1  0
 34 31  1  6
 31 39  1  0
 35 32  1  6
 32 40  1  0
 41 43  1  0
 15 19  2  0
 42 43  2  0
 16 22  2  0
 12 17  1  1
 17 19  1  0
 17 20  1  0
 18 19  1  0
 18 22  1  0
 18 23  1  0
  9 10  1  0
  9 11  1  0
 10 12  1  0
 11  5  1  1
 33 34  1  0
 33 35  1  0
 34 36  1  0
 35 37  1  0
 37 43  1  1
 20 21  2  0
 21 22  1  0
M  CHG  3   2  -1  26  -1  41  -1
M  END
>  <COMPND>  (29) 
    udp_gluA.pdb 

>  <AUTHOR>  (29) 
    GENERATED BY OPEN BABEL 3.1.1

>  <MASTER>  (29) 
        0    0    0    0    0    0    0    0   56    0   56    0

>  <minimizedAffinity>  (29) 
-8.48449

>  <CNNscore>  (29) 
0.4271437526

>  <CNNaffinity>  (29) 
4.1948385239

>  <CNN_VS>  (29) 
1.7917990685

>  <CNNaffinity_variance>  (29) 
0.3878106475

$$$$
30
     RDKit          3D

 43 45  0  0  0  0  0  0  0  0999 V2000
   22.0793   72.7355   -4.3896 P   0  0  2  0  0  0  0  0  0  0  0  0
   23.6380   72.7870   -4.8216 O   0  0  0  0  0  0  0  0  0  0  0  0
   21.5794   73.9564   -3.6745 O   0  0  0  0  0  0  0  0  0  0  0  0
   21.9468   71.3422   -3.5778 O   0  0  0  0  0  0  0  0  0  0  0  0
   22.9154   71.0405   -2.5902 C   0  0  0  0  0  0  0  0  0  0  0  0
   22.7315   70.8728   -0.1994 O   0  0  0  0  0  0  0  0  0  0  0  0
   20.1571   69.4143   -0.6861 O   0  0  0  0  0  0  0  0  0  0  0  0
   19.3071   71.9211   -0.0308 O   0  0  0  0  0  0  0  0  0  0  0  0
   20.7271   70.5067   -1.4074 C   0  0  1  0  0  0  0  0  0  0  0  0
   20.5863   71.7888   -0.6145 C   0  0  2  0  0  0  0  0  0  0  0  0
   22.2372   70.3139   -1.4358 C   0  0  1  0  0  0  0  0  0  0  0  0
   21.6889   71.6425    0.4202 C   0  0  2  0  0  0  0  0  0  0  0  0
   19.1925   69.5154   -0.6545 H   0  0  0  0  0  0  0  0  0  0  0  0
   18.6403   72.0113   -0.7302 H   0  0  0  0  0  0  0  0  0  0  0  0
   21.7380   72.5610    3.0905 O   0  0  0  0  0  0  0  0  0  0  0  0
   23.7714   76.5176    1.8844 O   0  0  0  0  0  0  0  0  0  0  0  0
   22.2253   72.9088    0.8321 N   0  0  0  0  0  0  0  0  0  0  0  0
   22.7498   74.5312    2.4871 N   0  0  0  0  0  0  0  0  0  0  0  0
   22.2012   73.2746    2.1987 C   0  0  0  0  0  0  0  0  0  0  0  0
   22.7686   73.7720   -0.1116 C   0  0  0  0  0  0  0  0  0  0  0  0
   23.2879   74.9665    0.1784 C   0  0  0  0  0  0  0  0  0  0  0  0
   23.3009   75.4249    1.5831 C   0  0  0  0  0  0  0  0  0  0  0  0
   22.7424   74.8087    3.4317 H   0  0  0  0  0  0  0  0  0  0  0  0
   21.3266   72.4166   -5.7841 O   0  0  0  0  0  0  0  0  0  0  0  0
   19.8618   71.8012   -6.0830 P   0  0  2  0  0  0  0  0  0  0  0  0
   18.9908   72.2825   -4.8063 O   0  0  0  0  0  0  0  0  0  0  0  0
   19.8525   70.3178   -6.3142 O   0  0  0  0  0  0  0  0  0  0  0  0
   19.2947   72.6744   -7.3153 O   0  0  0  0  0  0  0  0  0  0  0  0
   17.3105   73.9146   -6.9498 O   0  0  0  0  0  0  0  0  0  0  0  0
   17.6362   74.0438  -11.0662 O   0  0  0  0  0  0  0  0  0  0  0  0
   18.1858   71.5691   -9.6141 O   0  0  0  0  0  0  0  0  0  0  0  0
   18.3145   76.3801   -9.4748 O   0  0  0  0  0  0  0  0  0  0  0  0
   18.1145   73.9918   -9.7221 C   0  0  2  0  0  0  0  0  0  0  0  0
   17.5903   72.7274   -9.0410 C   0  0  2  0  0  0  0  0  0  0  0  0
   17.6093   75.2382   -8.9919 C   0  0  1  0  0  0  0  0  0  0  0  0
   17.8883   72.7503   -7.5411 C   0  0  1  0  0  0  0  0  0  0  0  0
   17.8301   75.1294   -7.4859 C   0  0  1  0  0  0  0  0  0  0  0  0
   17.9449   73.2614  -11.5499 H   0  0  0  0  0  0  0  0  0  0  0  0
   18.0009   71.5483  -10.5659 H   0  0  0  0  0  0  0  0  0  0  0  0
   18.1824   76.4607  -10.4323 H   0  0  0  0  0  0  0  0  0  0  0  0
   17.6790   77.3772   -6.8331 O   0  0  0  0  0  0  0  0  0  0  0  0
   15.9944   75.9879   -6.1765 O   0  0  0  0  0  0  0  0  0  0  0  0
   17.0519   76.1771   -6.7586 C   0  0  0  0  0  0  0  0  0  0  0  0
  1  4  1  0
  1 24  1  0
  1  2  1  6
  1  3  2  0
 25 28  1  0
 25 24  1  0
 25 26  1  1
 25 27  2  0
  6 11  1  0
  6 12  1  0
 29 36  1  0
 29 37  1  0
  9  7  1  1
  7 13  1  0
 10  8  1  1
  8 14  1  0
  4  5  1  0
 36 28  1  6
 33 30  1  6
 30 38  1  0
 34 31  1  6
 31 39  1  0
 35 32  1  6
 32 40  1  0
 41 43  1  0
 15 19  2  0
 42 43  2  0
 16 22  2  0
 12 17  1  6
 17 19  1  0
 17 20  1  0
 18 19  1  0
 18 22  1  0
 18 23  1  0
  9 10  1  0
  9 11  1  0
 10 12  1  0
 11  5  1  6
 33 34  1  0
 33 35  1  0
 34 36  1  0
 35 37  1  0
 37 43  1  1
 20 21  2  0
 21 22  1  0
M  CHG  3   2  -1  26  -1  41  -1
M  END
>  <COMPND>  (30) 
    udp_gluA.pdb 

>  <AUTHOR>  (30) 
    GENERATED BY OPEN BABEL 3.1.1

>  <MASTER>  (30) 
        0    0    0    0    0    0    0    0   56    0   56    0

>  <minimizedAffinity>  (30) 
-7.40781

>  <CNNscore>  (30) 
0.4237516522

>  <CNNaffinity>  (30) 
4.0716900826

>  <CNN_VS>  (30) 
1.7253854275

>  <CNNaffinity_variance>  (30) 
0.0920906663

$$$$
31
     RDKit          3D

 43 45  0  0  0  0  0  0  0  0999 V2000
   20.3047   70.3314   -1.6437 P   0  0  2  0  0  0  0  0  0  0  0  0
   20.5212   69.7818   -3.1504 O   0  0  0  0  0  0  0  0  0  0  0  0
   20.2460   69.2700   -0.5845 O   0  0  0  0  0  0  0  0  0  0  0  0
   18.9997   71.2807   -1.7602 O   0  0  0  0  0  0  0  0  0  0  0  0
   18.6628   71.8144   -3.0276 C   0  0  0  0  0  0  0  0  0  0  0  0
   17.0264   71.6733   -4.7825 O   0  0  0  0  0  0  0  0  0  0  0  0
   15.6008   69.6927   -3.0400 O   0  0  0  0  0  0  0  0  0  0  0  0
   16.8755   68.0917   -4.8422 O   0  0  0  0  0  0  0  0  0  0  0  0
   17.0029   69.8958   -3.2170 C   0  0  1  0  0  0  0  0  0  0  0  0
   17.4459   69.3522   -4.5589 C   0  0  2  0  0  0  0  0  0  0  0  0
   17.2438   71.3900   -3.3833 C   0  0  1  0  0  0  0  0  0  0  0  0
   16.9707   70.4365   -5.5109 C   0  0  2  0  0  0  0  0  0  0  0  0
   15.4221   68.7451   -2.9316 H   0  0  0  0  0  0  0  0  0  0  0  0
   17.2094   67.4361   -4.2093 H   0  0  0  0  0  0  0  0  0  0  0  0
   15.9906   70.6887   -8.1476 O   0  0  0  0  0  0  0  0  0  0  0  0
   20.2468   70.8406   -9.9099 O   0  0  0  0  0  0  0  0  0  0  0  0
   17.8005   70.5438   -6.6774 N   0  0  0  0  0  0  0  0  0  0  0  0
   18.1113   70.7631   -9.0229 N   0  0  0  0  0  0  0  0  0  0  0  0
   17.2079   70.6664   -7.9564 C   0  0  0  0  0  0  0  0  0  0  0  0
   19.1840   70.5289   -6.5481 C   0  0  0  0  0  0  0  0  0  0  0  0
   20.0322   70.6221   -7.5740 C   0  0  0  0  0  0  0  0  0  0  0  0
   19.4945   70.7522   -8.9442 C   0  0  0  0  0  0  0  0  0  0  0  0
   17.7223   70.8472   -9.9234 H   0  0  0  0  0  0  0  0  0  0  0  0
   21.5114   71.3924   -1.4676 O   0  0  0  0  0  0  0  0  0  0  0  0
   22.3611   71.8265   -0.1624 P   0  0  2  0  0  0  0  0  0  0  0  0
   23.3483   72.9771   -0.7297 O   0  0  0  0  0  0  0  0  0  0  0  0
   23.0646   70.6896    0.5205 O   0  0  0  0  0  0  0  0  0  0  0  0
   21.3067   72.6171    0.7680 O   0  0  0  0  0  0  0  0  0  0  0  0
   19.7630   74.1742   -0.1272 O   0  0  0  0  0  0  0  0  0  0  0  0
   19.8729   75.2904    3.8490 O   0  0  0  0  0  0  0  0  0  0  0  0
   22.3336   74.5890    2.4392 O   0  0  0  0  0  0  0  0  0  0  0  0
   17.5973   73.8082    2.8118 O   0  0  0  0  0  0  0  0  0  0  0  0
   19.9358   74.3844    2.7476 C   0  0  2  0  0  0  0  0  0  0  0  0
   21.0731   74.7946    1.8118 C   0  0  2  0  0  0  0  0  0  0  0  0
   18.5950   74.4402    2.0121 C   0  0  1  0  0  0  0  0  0  0  0  0
   21.0276   73.9921    0.5108 C   0  0  1  0  0  0  0  0  0  0  0  0
   18.6674   73.7239    0.6666 C   0  0  1  0  0  0  0  0  0  0  0  0
   20.7144   75.2721    4.3315 H   0  0  0  0  0  0  0  0  0  0  0  0
   22.3693   75.0951    3.2656 H   0  0  0  0  0  0  0  0  0  0  0  0
   17.5412   74.2545    3.6712 H   0  0  0  0  0  0  0  0  0  0  0  0
   16.3923   73.3600    0.2273 O   0  0  0  0  0  0  0  0  0  0  0  0
   17.4827   74.8551   -1.1049 O   0  0  0  0  0  0  0  0  0  0  0  0
   17.4812   74.0595   -0.1775 C   0  0  0  0  0  0  0  0  0  0  0  0
  1  4  1  0
  1 24  1  0
  1  2  1  6
  1  3  2  0
 25 28  1  0
 25 24  1  0
 25 26  1  6
 25 27  2  0
  6 11  1  0
  6 12  1  0
 29 36  1  0
 29 37  1  0
  9  7  1  6
  7 13  1  0
 10  8  1  6
  8 14  1  0
  4  5  1  0
 36 28  1  1
 33 30  1  1
 30 38  1  0
 34 31  1  1
 31 39  1  0
 35 32  1  1
 32 40  1  0
 41 43  1  0
 15 19  2  0
 42 43  2  0
 16 22  2  0
 12 17  1  6
 17 19  1  0
 17 20  1  0
 18 19  1  0
 18 22  1  0
 18 23  1  0
  9 10  1  0
  9 11  1  0
 10 12  1  0
 11  5  1  6
 33 34  1  0
 33 35  1  0
 34 36  1  0
 35 37  1  0
 37 43  1  6
 20 21  2  0
 21 22  1  0
M  CHG  3   2  -1  26  -1  41  -1
M  END
>  <COMPND>  (31) 
    udp_gluA.pdb 

>  <AUTHOR>  (31) 
    GENERATED BY OPEN BABEL 3.1.1

>  <MASTER>  (31) 
        0    0    0    0    0    0    0    0   56    0   56    0

>  <minimizedAffinity>  (31) 
-7.16730

>  <CNNscore>  (31) 
0.4204860926

>  <CNNaffinity>  (31) 
4.3065762520

>  <CNN_VS>  (31) 
1.8108553886

>  <CNNaffinity_variance>  (31) 
0.0348748341

$$$$
32
     RDKit          3D

 43 45  0  0  0  0  0  0  0  0999 V2000
   22.6801   73.1197   -4.3178 P   0  0  2  0  0  0  0  0  0  0  0  0
   22.2597   74.2761   -5.3690 O   0  0  0  0  0  0  0  0  0  0  0  0
   24.1419   72.7814   -4.2993 O   0  0  0  0  0  0  0  0  0  0  0  0
   21.6801   71.8962   -4.6657 O   0  0  0  0  0  0  0  0  0  0  0  0
   21.5635   70.8335   -3.7376 C   0  0  0  0  0  0  0  0  0  0  0  0
   19.2565   71.3624   -4.1565 O   0  0  0  0  0  0  0  0  0  0  0  0
   18.6178   69.5707   -1.8385 O   0  0  0  0  0  0  0  0  0  0  0  0
   18.0787   67.9804   -3.9870 O   0  0  0  0  0  0  0  0  0  0  0  0
   19.6397   69.4398   -2.8270 C   0  0  1  0  0  0  0  0  0  0  0  0
   19.0395   69.0031   -4.1466 C   0  0  2  0  0  0  0  0  0  0  0  0
   20.1551   70.8339   -3.1573 C   0  0  1  0  0  0  0  0  0  0  0  0
   18.4350   70.2980   -4.6621 C   0  0  2  0  0  0  0  0  0  0  0  0
   18.2730   68.6926   -1.6112 H   0  0  0  0  0  0  0  0  0  0  0  0
   18.5130   67.1774   -3.6573 H   0  0  0  0  0  0  0  0  0  0  0  0
   16.1663   69.7597   -6.2557 O   0  0  0  0  0  0  0  0  0  0  0  0
   18.4854   70.5746  -10.1547 O   0  0  0  0  0  0  0  0  0  0  0  0
   18.4180   70.3621   -6.0961 N   0  0  0  0  0  0  0  0  0  0  0  0
   17.3238   70.1651   -8.1961 N   0  0  0  0  0  0  0  0  0  0  0  0
   17.2260   70.0727   -6.8015 C   0  0  0  0  0  0  0  0  0  0  0  0
   19.5715   70.7097   -6.7886 C   0  0  0  0  0  0  0  0  0  0  0  0
   19.6493   70.7937   -8.1181 C   0  0  0  0  0  0  0  0  0  0  0  0
   18.4485   70.5061   -8.9298 C   0  0  0  0  0  0  0  0  0  0  0  0
   16.5073   69.9661   -8.7090 H   0  0  0  0  0  0  0  0  0  0  0  0
   22.0998   73.6757   -2.9153 O   0  0  0  0  0  0  0  0  0  0  0  0
   22.6567   73.5316   -1.4045 P   0  0  2  0  0  0  0  0  0  0  0  0
   23.3388   74.9723   -1.1227 O   0  0  0  0  0  0  0  0  0  0  0  0
   23.5739   72.3616   -1.1952 O   0  0  0  0  0  0  0  0  0  0  0  0
   21.3344   73.5194   -0.4803 O   0  0  0  0  0  0  0  0  0  0  0  0
   21.7723   73.9872    1.7997 O   0  0  0  0  0  0  0  0  0  0  0  0
   17.7967   72.8698    1.9192 O   0  0  0  0  0  0  0  0  0  0  0  0
   19.7002   71.3956    0.2645 O   0  0  0  0  0  0  0  0  0  0  0  0
   18.5315   75.6739    2.1384 O   0  0  0  0  0  0  0  0  0  0  0  0
   18.9731   73.4415    1.3470 C   0  0  2  0  0  0  0  0  0  0  0  0
   20.0597   72.3717    1.2354 C   0  0  2  0  0  0  0  0  0  0  0  0
   19.4378   74.5790    2.2591 C   0  0  1  0  0  0  0  0  0  0  0  0
   21.4011   72.9932    0.8438 C   0  0  1  0  0  0  0  0  0  0  0  0
   20.8361   75.0595    1.8820 C   0  0  1  0  0  0  0  0  0  0  0  0
   17.4830   72.1443    1.3565 H   0  0  0  0  0  0  0  0  0  0  0  0
   18.8498   70.9973    0.5066 H   0  0  0  0  0  0  0  0  0  0  0  0
   17.6376   75.3813    2.3755 H   0  0  0  0  0  0  0  0  0  0  0  0
   20.7089   75.7778    4.1112 O   0  0  0  0  0  0  0  0  0  0  0  0
   22.3752   76.6588    2.8281 O   0  0  0  0  0  0  0  0  0  0  0  0
   21.4087   75.9228    2.9587 C   0  0  0  0  0  0  0  0  0  0  0  0
  1  4  1  0
  1 24  1  0
  1  2  1  6
  1  3  2  0
 25 28  1  0
 25 24  1  0
 25 26  1  1
 25 27  2  0
  6 11  1  0
  6 12  1  0
 29 36  1  0
 29 37  1  0
  9  7  1  1
  7 13  1  0
 10  8  1  1
  8 14  1  0
  4  5  1  0
 36 28  1  6
 33 30  1  1
 30 38  1  0
 34 31  1  6
 31 39  1  0
 35 32  1  6
 32 40  1  0
 41 43  1  0
 15 19  2  0
 42 43  2  0
 16 22  2  0
 12 17  1  6
 17 19  1  0
 17 20  1  0
 18 19  1  0
 18 22  1  0
 18 23  1  0
  9 10  1  0
  9 11  1  0
 10 12  1  0
 11  5  1  6
 33 34  1  0
 33 35  1  0
 34 36  1  0
 35 37  1  0
 37 43  1  1
 20 21  2  0
 21 22  1  0
M  CHG  3   2  -1  26  -1  41  -1
M  END
>  <COMPND>  (32) 
    udp_gluA.pdb 

>  <AUTHOR>  (32) 
    GENERATED BY OPEN BABEL 3.1.1

>  <MASTER>  (32) 
        0    0    0    0    0    0    0    0   56    0   56    0

>  <minimizedAffinity>  (32) 
-7.10963

>  <CNNscore>  (32) 
0.3972032666

>  <CNNaffinity>  (32) 
4.0795679092

>  <CNN_VS>  (32) 
1.6204177141

>  <CNNaffinity_variance>  (32) 
0.1932137907

$$$$
33
     RDKit          3D

 43 45  0  0  0  0  0  0  0  0999 V2000
   22.7018   72.9454   -4.0842 P   0  0  2  0  0  0  0  0  0  0  0  0
   23.6212   72.9774   -5.4156 O   0  0  0  0  0  0  0  0  0  0  0  0
   23.3829   72.4155   -2.8565 O   0  0  0  0  0  0  0  0  0  0  0  0
   21.3724   72.1489   -4.5493 O   0  0  0  0  0  0  0  0  0  0  0  0
   20.5747   71.5281   -3.5579 C   0  0  0  0  0  0  0  0  0  0  0  0
   18.9246   72.8379   -4.7152 O   0  0  0  0  0  0  0  0  0  0  0  0
   17.1081   72.2530   -2.4022 O   0  0  0  0  0  0  0  0  0  0  0  0
   16.2476   70.4901   -4.2964 O   0  0  0  0  0  0  0  0  0  0  0  0
   18.0923   71.4175   -3.0121 C   0  0  1  0  0  0  0  0  0  0  0  0
   17.5944   70.9117   -4.3495 C   0  0  2  0  0  0  0  0  0  0  0  0
   19.2665   72.2963   -3.4209 C   0  0  1  0  0  0  0  0  0  0  0  0
   17.7922   72.1267   -5.2397 C   0  0  2  0  0  0  0  0  0  0  0  0
   16.3478   71.7136   -2.1325 H   0  0  0  0  0  0  0  0  0  0  0  0
   16.1742   69.7143   -3.7178 H   0  0  0  0  0  0  0  0  0  0  0  0
   16.5411   73.3203   -7.4728 O   0  0  0  0  0  0  0  0  0  0  0  0
   18.8852   70.6743  -10.4304 O   0  0  0  0  0  0  0  0  0  0  0  0
   18.0569   71.7688   -6.6045 N   0  0  0  0  0  0  0  0  0  0  0  0
   17.7090   72.0006   -8.9437 N   0  0  0  0  0  0  0  0  0  0  0  0
   17.3739   72.4299   -7.6527 C   0  0  0  0  0  0  0  0  0  0  0  0
   18.9843   70.7753   -6.8937 C   0  0  0  0  0  0  0  0  0  0  0  0
   19.2932   70.3770   -8.1293 C   0  0  0  0  0  0  0  0  0  0  0  0
   18.6240   71.0164   -9.2811 C   0  0  0  0  0  0  0  0  0  0  0  0
   17.2450   72.4448   -9.6898 H   0  0  0  0  0  0  0  0  0  0  0  0
   22.1864   74.4726   -3.9622 O   0  0  0  0  0  0  0  0  0  0  0  0
   22.4627   75.5993   -2.8362 P   0  0  2  0  0  0  0  0  0  0  0  0
   21.1191   76.5010   -2.8777 O   0  0  0  0  0  0  0  0  0  0  0  0
   23.7333   76.3731   -3.0381 O   0  0  0  0  0  0  0  0  0  0  0  0
   22.3776   74.8061   -1.4340 O   0  0  0  0  0  0  0  0  0  0  0  0
   20.4744   73.8178   -0.4289 O   0  0  0  0  0  0  0  0  0  0  0  0
   22.7480   74.8126    2.8739 O   0  0  0  0  0  0  0  0  0  0  0  0
   22.5066   76.6668    0.6293 O   0  0  0  0  0  0  0  0  0  0  0  0
   22.5943   72.0484    1.9871 O   0  0  0  0  0  0  0  0  0  0  0  0
   22.5175   74.4115    1.5234 C   0  0  2  0  0  0  0  0  0  0  0  0
   21.7186   75.4940    0.7972 C   0  0  2  0  0  0  0  0  0  0  0  0
   21.7335   73.0974    1.5477 C   0  0  1  0  0  0  0  0  0  0  0  0
   21.2557   75.0042   -0.5756 C   0  0  1  0  0  0  0  0  0  0  0  0
   21.1990   72.7420    0.1633 C   0  0  1  0  0  0  0  0  0  0  0  0
   23.2449   75.6459    2.8835 H   0  0  0  0  0  0  0  0  0  0  0  0
   22.8039   76.9830    1.4965 H   0  0  0  0  0  0  0  0  0  0  0  0
   22.9415   72.2624    2.8672 H   0  0  0  0  0  0  0  0  0  0  0  0
   19.0860   72.0820    0.9387 O   0  0  0  0  0  0  0  0  0  0  0  0
   20.2948   70.5393   -0.2265 O   0  0  0  0  0  0  0  0  0  0  0  0
   20.1756   71.6571    0.2523 C   0  0  0  0  0  0  0  0  0  0  0  0
  1  4  1  0
  1 24  1  0
  1  2  1  6
  1  3  2  0
 25 28  1  0
 25 24  1  0
 25 26  1  1
 25 27  2  0
  6 11  1  0
  6 12  1  0
 29 36  1  0
 29 37  1  0
  9  7  1  6
  7 13  1  0
 10  8  1  1
  8 14  1  0
  4  5  1  0
 36 28  1  6
 33 30  1  1
 30 38  1  0
 34 31  1  6
 31 39  1  0
 35 32  1  6
 32 40  1  0
 41 43  1  0
 15 19  2  0
 42 43  2  0
 16 22  2  0
 12 17  1  6
 17 19  1  0
 17 20  1  0
 18 19  1  0
 18 22  1  0
 18 23  1  0
  9 10  1  0
  9 11  1  0
 10 12  1  0
 11  5  1  6
 33 34  1  0
 33 35  1  0
 34 36  1  0
 35 37  1  0
 37 43  1  1
 20 21  2  0
 21 22  1  0
M  CHG  3   2  -1  26  -1  41  -1
M  END
>  <COMPND>  (33) 
    udp_gluA.pdb 

>  <AUTHOR>  (33) 
    GENERATED BY OPEN BABEL 3.1.1

>  <MASTER>  (33) 
        0    0    0    0    0    0    0    0   56    0   56    0

>  <minimizedAffinity>  (33) 
-6.44246

>  <CNNscore>  (33) 
0.3969770372

>  <CNNaffinity>  (33) 
4.3343873024

>  <CNN_VS>  (33) 
1.7206522226

>  <CNNaffinity_variance>  (33) 
0.0627752468

$$$$
34
     RDKit          3D

 43 45  0  0  0  0  0  0  0  0999 V2000
   22.1824   73.5634   -4.5141 P   0  0  2  0  0  0  0  0  0  0  0  0
   23.4485   73.0517   -5.3823 O   0  0  0  0  0  0  0  0  0  0  0  0
   21.3988   72.4779   -3.8362 O   0  0  0  0  0  0  0  0  0  0  0  0
   21.3508   74.4892   -5.5481 O   0  0  0  0  0  0  0  0  0  0  0  0
   19.9957   74.1683   -5.8036 C   0  0  0  0  0  0  0  0  0  0  0  0
   19.8744   71.9798   -6.7902 O   0  0  0  0  0  0  0  0  0  0  0  0
   18.8835   73.3536   -9.2645 O   0  0  0  0  0  0  0  0  0  0  0  0
   16.5858   72.3873   -8.1587 O   0  0  0  0  0  0  0  0  0  0  0  0
   18.6349   73.6694   -7.8945 C   0  0  1  0  0  0  0  0  0  0  0  0
   17.6657   72.6729   -7.2945 C   0  0  2  0  0  0  0  0  0  0  0  0
   19.9083   73.3878   -7.1088 C   0  0  1  0  0  0  0  0  0  0  0  0
   18.5593   71.4675   -7.0571 C   0  0  2  0  0  0  0  0  0  0  0  0
   18.0838   73.5255   -9.7866 H   0  0  0  0  0  0  0  0  0  0  0  0
   16.0471   73.1858   -8.2778 H   0  0  0  0  0  0  0  0  0  0  0  0
   16.1930   69.9264   -7.0067 O   0  0  0  0  0  0  0  0  0  0  0  0
   17.0093   68.4803   -2.7071 O   0  0  0  0  0  0  0  0  0  0  0  0
   18.1293   70.6787   -5.9374 N   0  0  0  0  0  0  0  0  0  0  0  0
   16.6013   69.2085   -4.8650 N   0  0  0  0  0  0  0  0  0  0  0  0
   16.9242   69.9412   -6.0147 C   0  0  0  0  0  0  0  0  0  0  0  0
   18.8981   70.6395   -4.7805 C   0  0  0  0  0  0  0  0  0  0  0  0
   18.5774   69.9363   -3.6927 C   0  0  0  0  0  0  0  0  0  0  0  0
   17.3335   69.1388   -3.6908 C   0  0  0  0  0  0  0  0  0  0  0  0
   15.7657   68.6886   -4.8942 H   0  0  0  0  0  0  0  0  0  0  0  0
   22.8438   74.6438   -3.5100 O   0  0  0  0  0  0  0  0  0  0  0  0
   22.1828   75.5665   -2.3587 P   0  0  2  0  0  0  0  0  0  0  0  0
   20.6117   75.5750   -2.7481 O   0  0  0  0  0  0  0  0  0  0  0  0
   22.7967   76.9309   -2.2350 O   0  0  0  0  0  0  0  0  0  0  0  0
   22.2655   74.6713   -1.0192 O   0  0  0  0  0  0  0  0  0  0  0  0
   20.7300   72.8855   -0.7694 O   0  0  0  0  0  0  0  0  0  0  0  0
   22.1846   73.2876    3.0764 O   0  0  0  0  0  0  0  0  0  0  0  0
   21.5416   75.6494    1.4819 O   0  0  0  0  0  0  0  0  0  0  0  0
   23.0806   71.0881    1.4000 O   0  0  0  0  0  0  0  0  0  0  0  0
   22.2406   73.3323    1.6507 C   0  0  2  0  0  0  0  0  0  0  0  0
   21.1934   74.3160    1.1280 C   0  0  2  0  0  0  0  0  0  0  0  0
   21.9589   71.9242    1.1219 C   0  0  1  0  0  0  0  0  0  0  0  0
   21.0652   74.2217   -0.3930 C   0  0  1  0  0  0  0  0  0  0  0  0
   21.7187   71.9327   -0.3850 C   0  0  1  0  0  0  0  0  0  0  0  0
   22.3606   74.1717    3.4350 H   0  0  0  0  0  0  0  0  0  0  0  0
   21.6249   75.7165    2.4457 H   0  0  0  0  0  0  0  0  0  0  0  0
   23.2443   71.0741    2.3560 H   0  0  0  0  0  0  0  0  0  0  0  0
   21.9463   70.0209   -1.7248 O   0  0  0  0  0  0  0  0  0  0  0  0
   20.0577   70.1841   -0.4576 O   0  0  0  0  0  0  0  0  0  0  0  0
   21.1282   70.6362   -0.8353 C   0  0  0  0  0  0  0  0  0  0  0  0
  1  4  1  0
  1 24  1  0
  1  2  1  6
  1  3  2  0
 25 28  1  0
 25 24  1  0
 25 26  1  6
 25 27  2  0
  6 11  1  0
  6 12  1  0
 29 36  1  0
 29 37  1  0
  9  7  1  6
  7 13  1  0
 10  8  1  6
  8 14  1  0
  4  5  1  0
 36 28  1  6
 33 30  1  1
 30 38  1  0
 34 31  1  6
 31 39  1  0
 35 32  1  6
 32 40  1  0
 41 43  1  0
 15 19  2  0
 42 43  2  0
 16 22  2  0
 12 17  1  1
 17 19  1  0
 17 20  1  0
 18 19  1  0
 18 22  1  0
 18 23  1  0
  9 10  1  0
  9 11  1  0
 10 12  1  0
 11  5  1  1
 33 34  1  0
 33 35  1  0
 34 36  1  0
 35 37  1  0
 37 43  1  1
 20 21  2  0
 21 22  1  0
M  CHG  3   2  -1  26  -1  41  -1
M  END
>  <COMPND>  (34) 
    udp_gluA.pdb 

>  <AUTHOR>  (34) 
    GENERATED BY OPEN BABEL 3.1.1

>  <MASTER>  (34) 
        0    0    0    0    0    0    0    0   56    0   56    0

>  <minimizedAffinity>  (34) 
-7.19387

>  <CNNscore>  (34) 
0.3802696466

>  <CNNaffinity>  (34) 
4.1140503883

>  <CNN_VS>  (34) 
1.5644484758

>  <CNNaffinity_variance>  (34) 
0.3480966985

$$$$
35
     RDKit          3D

 43 45  0  0  0  0  0  0  0  0999 V2000
   21.1445   75.2055   -6.0669 P   0  0  2  0  0  0  0  0  0  0  0  0
   20.4974   76.2232   -4.9878 O   0  0  0  0  0  0  0  0  0  0  0  0
   22.4086   75.6890   -6.7151 O   0  0  0  0  0  0  0  0  0  0  0  0
   19.9207   74.8761   -7.0728 O   0  0  0  0  0  0  0  0  0  0  0  0
   19.0471   73.8102   -6.7484 C   0  0  0  0  0  0  0  0  0  0  0  0
   19.3282   71.4724   -7.2316 O   0  0  0  0  0  0  0  0  0  0  0  0
   18.1392   72.0752   -9.9176 O   0  0  0  0  0  0  0  0  0  0  0  0
   16.0363   70.9857   -8.5660 O   0  0  0  0  0  0  0  0  0  0  0  0
   17.8218   72.6344   -8.6428 C   0  0  1  0  0  0  0  0  0  0  0  0
   17.0377   71.6389   -7.8143 C   0  0  2  0  0  0  0  0  0  0  0  0
   19.1155   72.7601   -7.8497 C   0  0  1  0  0  0  0  0  0  0  0  0
   18.1282   70.6911   -7.3448 C   0  0  2  0  0  0  0  0  0  0  0  0
   17.3281   71.9852  -10.4426 H   0  0  0  0  0  0  0  0  0  0  0  0
   15.3659   71.6312   -8.8412 H   0  0  0  0  0  0  0  0  0  0  0  0
   20.0426   70.2185   -5.3228 O   0  0  0  0  0  0  0  0  0  0  0  0
   16.8770   68.4310   -2.4895 O   0  0  0  0  0  0  0  0  0  0  0  0
   17.8316   70.1034   -6.0690 N   0  0  0  0  0  0  0  0  0  0  0  0
   18.4643   69.3278   -3.9139 N   0  0  0  0  0  0  0  0  0  0  0  0
   18.8663   69.9092   -5.1236 C   0  0  0  0  0  0  0  0  0  0  0  0
   16.5288   69.7281   -5.7643 C   0  0  0  0  0  0  0  0  0  0  0  0
   16.1609   69.1752   -4.6069 C   0  0  0  0  0  0  0  0  0  0  0  0
   17.1815   68.9372   -3.5652 C   0  0  0  0  0  0  0  0  0  0  0  0
   19.1675   69.1807   -3.2408 H   0  0  0  0  0  0  0  0  0  0  0  0
   21.3014   73.8349   -5.2245 O   0  0  0  0  0  0  0  0  0  0  0  0
   22.4865   73.3140   -4.2561 P   0  0  2  0  0  0  0  0  0  0  0  0
   22.8011   74.6037   -3.3298 O   0  0  0  0  0  0  0  0  0  0  0  0
   23.6814   72.7690   -4.9836 O   0  0  0  0  0  0  0  0  0  0  0  0
   21.7712   72.2636   -3.2624 O   0  0  0  0  0  0  0  0  0  0  0  0
   22.8505   72.2416   -1.1544 O   0  0  0  0  0  0  0  0  0  0  0  0
   20.0494   69.2396   -0.6960 O   0  0  0  0  0  0  0  0  0  0  0  0
   21.5560   69.4916   -3.1862 O   0  0  0  0  0  0  0  0  0  0  0  0
   19.6314   71.8292    0.5571 O   0  0  0  0  0  0  0  0  0  0  0  0
   20.5701   70.4707   -1.1974 C   0  0  2  0  0  0  0  0  0  0  0  0
   21.8504   70.2006   -1.9882 C   0  0  2  0  0  0  0  0  0  0  0  0
   20.8642   71.3811   -0.0031 C   0  0  1  0  0  0  0  0  0  0  0  0
   22.5594   71.5079   -2.3445 C   0  0  1  0  0  0  0  0  0  0  0  0
   21.6822   72.6001   -0.4199 C   0  0  1  0  0  0  0  0  0  0  0  0
   19.8550   68.6448   -1.4374 H   0  0  0  0  0  0  0  0  0  0  0  0
   21.1058   68.6610   -2.9676 H   0  0  0  0  0  0  0  0  0  0  0  0
   19.1011   71.0629    0.8264 H   0  0  0  0  0  0  0  0  0  0  0  0
   22.1676   72.5038    1.8729 O   0  0  0  0  0  0  0  0  0  0  0  0
   22.7012   74.4306    0.7768 O   0  0  0  0  0  0  0  0  0  0  0  0
   22.2397   73.2993    0.7770 C   0  0  0  0  0  0  0  0  0  0  0  0
  1  4  1  0
  1 24  1  0
  1  2  1  1
  1  3  2  0
 25 28  1  0
 25 24  1  0
 25 26  1  1
 25 27  2  0
  6 11  1  0
  6 12  1  0
 29 36  1  0
 29 37  1  0
  9  7  1  6
  7 13  1  0
 10  8  1  6
  8 14  1  0
  4  5  1  0
 36 28  1  6
 33 30  1  1
 30 38  1  0
 34 31  1  6
 31 39  1  0
 35 32  1  6
 32 40  1  0
 41 43  1  0
 15 19  2  0
 42 43  2  0
 16 22  2  0
 12 17  1  1
 17 19  1  0
 17 20  1  0
 18 19  1  0
 18 22  1  0
 18 23  1  0
  9 10  1  0
  9 11  1  0
 10 12  1  0
 11  5  1  1
 33 34  1  0
 33 35  1  0
 34 36  1  0
 35 37  1  0
 37 43  1  1
 20 21  2  0
 21 22  1  0
M  CHG  3   2  -1  26  -1  41  -1
M  END
>  <COMPND>  (35) 
    udp_gluA.pdb 

>  <AUTHOR>  (35) 
    GENERATED BY OPEN BABEL 3.1.1

>  <MASTER>  (35) 
        0    0    0    0    0    0    0    0   56    0   56    0

>  <minimizedAffinity>  (35) 
-8.48885

>  <CNNscore>  (35) 
0.3664751351

>  <CNNaffinity>  (35) 
4.1759061813

>  <CNN_VS>  (35) 
1.5303658247

>  <CNNaffinity_variance>  (35) 
0.5603063703

$$$$
36
     RDKit          3D

 43 45  0  0  0  0  0  0  0  0999 V2000
   22.8168   73.0000   -4.7695 P   0  0  2  0  0  0  0  0  0  0  0  0
   23.0658   73.0366   -6.3681 O   0  0  0  0  0  0  0  0  0  0  0  0
   23.9848   72.5230   -3.9572 O   0  0  0  0  0  0  0  0  0  0  0  0
   21.4527   72.1450   -4.6082 O   0  0  0  0  0  0  0  0  0  0  0  0
   21.4267   71.0838   -3.6713 C   0  0  0  0  0  0  0  0  0  0  0  0
   19.0899   71.3876   -4.1451 O   0  0  0  0  0  0  0  0  0  0  0  0
   18.5743   69.5051   -1.8687 O   0  0  0  0  0  0  0  0  0  0  0  0
   18.2511   67.9030   -4.0516 O   0  0  0  0  0  0  0  0  0  0  0  0
   19.6289   69.4919   -2.8311 C   0  0  1  0  0  0  0  0  0  0  0  0
   19.1089   69.0185   -4.1719 C   0  0  2  0  0  0  0  0  0  0  0  0
   20.0110   70.9353   -3.1291 C   0  0  1  0  0  0  0  0  0  0  0  0
   18.3917   70.2549   -4.6864 C   0  0  2  0  0  0  0  0  0  0  0  0
   18.3130   68.5936   -1.6623 H   0  0  0  0  0  0  0  0  0  0  0  0
   18.7548   67.1421   -3.7209 H   0  0  0  0  0  0  0  0  0  0  0  0
   16.1344   69.8302   -6.3299 O   0  0  0  0  0  0  0  0  0  0  0  0
   18.5587   70.6054  -10.1725 O   0  0  0  0  0  0  0  0  0  0  0  0
   18.4048   70.3395   -6.1195 N   0  0  0  0  0  0  0  0  0  0  0  0
   17.3442   70.2157   -8.2422 N   0  0  0  0  0  0  0  0  0  0  0  0
   17.2161   70.1080   -6.8511 C   0  0  0  0  0  0  0  0  0  0  0  0
   19.5844   70.6501   -6.7851 C   0  0  0  0  0  0  0  0  0  0  0  0
   19.6909   70.7493   -8.1116 C   0  0  0  0  0  0  0  0  0  0  0  0
   18.4955   70.5215   -8.9497 C   0  0  0  0  0  0  0  0  0  0  0  0
   16.5304   70.0568   -8.7730 H   0  0  0  0  0  0  0  0  0  0  0  0
   22.3404   74.5095   -4.4419 O   0  0  0  0  0  0  0  0  0  0  0  0
   21.2682   75.0756   -3.3725 P   0  0  2  0  0  0  0  0  0  0  0  0
   19.8437   74.7482   -4.0681 O   0  0  0  0  0  0  0  0  0  0  0  0
   21.4625   76.5198   -3.0112 O   0  0  0  0  0  0  0  0  0  0  0  0
   21.3564   74.0559   -2.1256 O   0  0  0  0  0  0  0  0  0  0  0  0
   21.1516   75.1256   -0.0225 O   0  0  0  0  0  0  0  0  0  0  0  0
   22.1818   71.2815    1.0864 O   0  0  0  0  0  0  0  0  0  0  0  0
   23.5101   72.5783   -1.1694 O   0  0  0  0  0  0  0  0  0  0  0  0
   19.4366   72.1954    1.3686 O   0  0  0  0  0  0  0  0  0  0  0  0
   21.5786   72.2847    0.2692 C   0  0  2  0  0  0  0  0  0  0  0  0
   22.6549   73.2410   -0.2452 C   0  0  2  0  0  0  0  0  0  0  0  0
   20.5590   73.0409    1.1239 C   0  0  1  0  0  0  0  0  0  0  0  0
   22.0259   74.4547   -0.9308 C   0  0  1  0  0  0  0  0  0  0  0  0
   20.0731   74.3059    0.4223 C   0  0  1  0  0  0  0  0  0  0  0  0
   22.8337   70.7878    0.5644 H   0  0  0  0  0  0  0  0  0  0  0  0
   23.9124   71.8069   -0.7411 H   0  0  0  0  0  0  0  0  0  0  0  0
   19.7323   71.3865    1.8147 H   0  0  0  0  0  0  0  0  0  0  0  0
   18.0091   74.9849    1.3057 O   0  0  0  0  0  0  0  0  0  0  0  0
   19.8770   76.0043    2.1248 O   0  0  0  0  0  0  0  0  0  0  0  0
   19.3467   75.1962    1.3772 C   0  0  0  0  0  0  0  0  0  0  0  0
  1  4  1  0
  1 24  1  0
  1  2  1  6
  1  3  2  0
 25 28  1  0
 25 24  1  0
 25 26  1  6
 25 27  2  0
  6 11  1  0
  6 12  1  0
 29 36  1  0
 29 37  1  0
  9  7  1  1
  7 13  1  0
 10  8  1  1
  8 14  1  0
  4  5  1  0
 36 28  1  6
 33 30  1  1
 30 38  1  0
 34 31  1  6
 31 39  1  0
 35 32  1  6
 32 40  1  0
 41 43  1  0
 15 19  2  0
 42 43  2  0
 16 22  2  0
 12 17  1  6
 17 19  1  0
 17 20  1  0
 18 19  1  0
 18 22  1  0
 18 23  1  0
  9 10  1  0
  9 11  1  0
 10 12  1  0
 11  5  1  6
 33 34  1  0
 33 35  1  0
 34 36  1  0
 35 37  1  0
 37 43  1  1
 20 21  2  0
 21 22  1  0
M  CHG  3   2  -1  26  -1  41  -1
M  END
>  <COMPND>  (36) 
    udp_gluA.pdb 

>  <AUTHOR>  (36) 
    GENERATED BY OPEN BABEL 3.1.1

>  <MASTER>  (36) 
        0    0    0    0    0    0    0    0   56    0   56    0

>  <minimizedAffinity>  (36) 
-7.18411

>  <CNNscore>  (36) 
0.3595512807

>  <CNNaffinity>  (36) 
4.1990776062

>  <CNN_VS>  (36) 
1.5097837448

>  <CNNaffinity_variance>  (36) 
0.1971492022

$$$$
37
     RDKit          3D

 43 45  0  0  0  0  0  0  0  0999 V2000
   20.4390   74.3049   -3.0096 P   0  0  2  0  0  0  0  0  0  0  0  0
   21.8947   74.9836   -2.8118 O   0  0  0  0  0  0  0  0  0  0  0  0
   19.3847   74.7762   -2.0514 O   0  0  0  0  0  0  0  0  0  0  0  0
   20.7453   72.7162   -2.9914 O   0  0  0  0  0  0  0  0  0  0  0  0
   22.0382   72.2812   -2.6122 C   0  0  0  0  0  0  0  0  0  0  0  0
   22.7491   71.6284   -0.4108 O   0  0  0  0  0  0  0  0  0  0  0  0
   20.3503   69.8294   -0.3721 O   0  0  0  0  0  0  0  0  0  0  0  0
   19.5229   71.9580    1.1181 O   0  0  0  0  0  0  0  0  0  0  0  0
   20.4974   71.1272   -0.9489 C   0  0  1  0  0  0  0  0  0  0  0  0
   20.5115   72.1840    0.1352 C   0  0  2  0  0  0  0  0  0  0  0  0
   21.9068   71.2327   -1.5151 C   0  0  1  0  0  0  0  0  0  0  0  0
   21.9222   72.0542    0.6839 C   0  0  2  0  0  0  0  0  0  0  0  0
   19.4573   69.7383   -0.0036 H   0  0  0  0  0  0  0  0  0  0  0  0
   18.6431   72.0523    0.7195 H   0  0  0  0  0  0  0  0  0  0  0  0
   21.8614   72.8008    3.4070 O   0  0  0  0  0  0  0  0  0  0  0  0
   23.8907   76.8456    2.5318 O   0  0  0  0  0  0  0  0  0  0  0  0
   22.4278   73.2966    1.1952 N   0  0  0  0  0  0  0  0  0  0  0  0
   22.8712   74.8150    2.9683 N   0  0  0  0  0  0  0  0  0  0  0  0
   22.3487   73.5742    2.5804 C   0  0  0  0  0  0  0  0  0  0  0  0
   22.9953   74.2234    0.3292 C   0  0  0  0  0  0  0  0  0  0  0  0
   23.4893   75.4019    0.7139 C   0  0  0  0  0  0  0  0  0  0  0  0
   23.4448   75.7698    2.1443 C   0  0  0  0  0  0  0  0  0  0  0  0
   22.8256   75.0316    3.9277 H   0  0  0  0  0  0  0  0  0  0  0  0
   20.1122   74.5942   -4.5660 O   0  0  0  0  0  0  0  0  0  0  0  0
   20.0415   73.5994   -5.8384 P   0  0  2  0  0  0  0  0  0  0  0  0
   21.5711   73.0942   -5.9983 O   0  0  0  0  0  0  0  0  0  0  0  0
   19.4635   74.2226   -7.0759 O   0  0  0  0  0  0  0  0  0  0  0  0
   19.2395   72.3062   -5.3029 O   0  0  0  0  0  0  0  0  0  0  0  0
   19.2587   70.0057   -4.7401 O   0  0  0  0  0  0  0  0  0  0  0  0
   17.1835   69.9800   -8.3123 O   0  0  0  0  0  0  0  0  0  0  0  0
   19.5541   71.6563   -7.9889 O   0  0  0  0  0  0  0  0  0  0  0  0
   15.7626   69.6561   -5.7969 O   0  0  0  0  0  0  0  0  0  0  0  0
   17.6226   70.5159   -7.0642 C   0  0  2  0  0  0  0  0  0  0  0  0
   19.1458   70.6482   -7.0715 C   0  0  2  0  0  0  0  0  0  0  0  0
   17.1768   69.5596   -5.9558 C   0  0  1  0  0  0  0  0  0  0  0  0
   19.6711   70.9997   -5.6790 C   0  0  1  0  0  0  0  0  0  0  0  0
   17.8414   69.9006   -4.6251 C   0  0  1  0  0  0  0  0  0  0  0  0
   17.4556   70.5711   -9.0319 H   0  0  0  0  0  0  0  0  0  0  0  0
   19.2239   71.4398   -8.8746 H   0  0  0  0  0  0  0  0  0  0  0  0
   15.3275   69.4416   -6.6369 H   0  0  0  0  0  0  0  0  0  0  0  0
   18.3112   69.0657   -2.4842 O   0  0  0  0  0  0  0  0  0  0  0  0
   17.0290   67.7652   -3.8494 O   0  0  0  0  0  0  0  0  0  0  0  0
   17.6661   68.7874   -3.6440 C   0  0  0  0  0  0  0  0  0  0  0  0
  1  4  1  0
  1 24  1  0
  1  2  1  1
  1  3  2  0
 25 28  1  0
 25 24  1  0
 25 26  1  6
 25 27  2  0
  6 11  1  0
  6 12  1  0
 29 36  1  0
 29 37  1  0
  9  7  1  1
  7 13  1  0
 10  8  1  1
  8 14  1  0
  4  5  1  0
 36 28  1  1
 33 30  1  6
 30 38  1  0
 34 31  1  6
 31 39  1  0
 35 32  1  1
 32 40  1  0
 41 43  1  0
 15 19  2  0
 42 43  2  0
 16 22  2  0
 12 17  1  6
 17 19  1  0
 17 20  1  0
 18 19  1  0
 18 22  1  0
 18 23  1  0
  9 10  1  0
  9 11  1  0
 10 12  1  0
 11  5  1  6
 33 34  1  0
 33 35  1  0
 34 36  1  0
 35 37  1  0
 37 43  1  1
 20 21  2  0
 21 22  1  0
M  CHG  3   2  -1  26  -1  41  -1
M  END
>  <COMPND>  (37) 
    udp_gluA.pdb 

>  <AUTHOR>  (37) 
    GENERATED BY OPEN BABEL 3.1.1

>  <MASTER>  (37) 
        0    0    0    0    0    0    0    0   56    0   56    0

>  <minimizedAffinity>  (37) 
-7.54490

>  <CNNscore>  (37) 
0.3499642909

>  <CNNaffinity>  (37) 
4.0036354065

>  <CNN_VS>  (37) 
1.4011294842

>  <CNNaffinity_variance>  (37) 
0.2466605604

$$$$
38
     RDKit          3D

 43 45  0  0  0  0  0  0  0  0999 V2000
   18.8804   73.8937   -3.3110 P   0  0  2  0  0  0  0  0  0  0  0  0
   18.0428   75.2632   -3.5154 O   0  0  0  0  0  0  0  0  0  0  0  0
   18.0717   72.6343   -3.4191 O   0  0  0  0  0  0  0  0  0  0  0  0
   19.6508   74.1155   -1.9056 O   0  0  0  0  0  0  0  0  0  0  0  0
   18.9899   74.8305   -0.8778 C   0  0  0  0  0  0  0  0  0  0  0  0
   18.9760   72.5285   -0.1860 O   0  0  0  0  0  0  0  0  0  0  0  0
   18.3118   73.5494    2.5540 O   0  0  0  0  0  0  0  0  0  0  0  0
   20.9810   73.0247    2.7445 O   0  0  0  0  0  0  0  0  0  0  0  0
   19.1622   74.1195    1.5589 C   0  0  1  0  0  0  0  0  0  0  0  0
   20.4597   73.3441    1.4714 C   0  0  2  0  0  0  0  0  0  0  0  0
   18.5376   73.8501    0.1968 C   0  0  1  0  0  0  0  0  0  0  0  0
   20.0393   72.1135    0.6861 C   0  0  2  0  0  0  0  0  0  0  0  0
   18.6904   73.7088    3.4332 H   0  0  0  0  0  0  0  0  0  0  0  0
   21.2341   73.8411    3.2043 H   0  0  0  0  0  0  0  0  0  0  0  0
   19.9459   69.6232   -0.6429 O   0  0  0  0  0  0  0  0  0  0  0  0
   24.2052   70.1537   -2.3225 O   0  0  0  0  0  0  0  0  0  0  0  0
   21.1097   71.5764   -0.1055 N   0  0  0  0  0  0  0  0  0  0  0  0
   22.0677   69.8893   -1.4773 N   0  0  0  0  0  0  0  0  0  0  0  0
   20.9614   70.3160   -0.7311 C   0  0  0  0  0  0  0  0  0  0  0  0
   22.2887   72.2961   -0.2571 C   0  0  0  0  0  0  0  0  0  0  0  0
   23.3347   71.8763   -0.9717 C   0  0  0  0  0  0  0  0  0  0  0  0
   23.2615   70.5692   -1.6568 C   0  0  0  0  0  0  0  0  0  0  0  0
   21.9888   69.0137   -1.9205 H   0  0  0  0  0  0  0  0  0  0  0  0
   20.0667   74.0277   -4.4008 O   0  0  0  0  0  0  0  0  0  0  0  0
   20.9052   72.9007   -5.2010 P   0  0  2  0  0  0  0  0  0  0  0  0
   21.1421   71.7533   -4.0840 O   0  0  0  0  0  0  0  0  0  0  0  0
   22.1641   73.4091   -5.8420 O   0  0  0  0  0  0  0  0  0  0  0  0
   19.8440   72.2545   -6.2299 O   0  0  0  0  0  0  0  0  0  0  0  0
   18.9719   70.0894   -5.8287 O   0  0  0  0  0  0  0  0  0  0  0  0
   18.0912   70.6224   -9.8298 O   0  0  0  0  0  0  0  0  0  0  0  0
   20.6790   71.4545   -8.7594 O   0  0  0  0  0  0  0  0  0  0  0  0
   15.9933   70.8524   -7.8306 O   0  0  0  0  0  0  0  0  0  0  0  0
   18.3075   71.0269   -8.4779 C   0  0  2  0  0  0  0  0  0  0  0  0
   19.7306   70.6609   -8.0556 C   0  0  2  0  0  0  0  0  0  0  0  0
   17.2877   70.3004   -7.5980 C   0  0  1  0  0  0  0  0  0  0  0  0
   19.9256   70.8675   -6.5529 C   0  0  1  0  0  0  0  0  0  0  0  0
   17.6229   70.4502   -6.1169 C   0  0  1  0  0  0  0  0  0  0  0  0
   18.7282   71.0714  -10.4076 H   0  0  0  0  0  0  0  0  0  0  0  0
   20.5608   71.3284   -9.7136 H   0  0  0  0  0  0  0  0  0  0  0  0
   15.7679   70.7635   -8.7698 H   0  0  0  0  0  0  0  0  0  0  0  0
   17.6445   68.8067   -4.4436 O   0  0  0  0  0  0  0  0  0  0  0  0
   15.6254   69.3224   -5.3690 O   0  0  0  0  0  0  0  0  0  0  0  0
   16.8342   69.4842   -5.2941 C   0  0  0  0  0  0  0  0  0  0  0  0
  1  4  1  0
  1 24  1  0
  1  2  1  6
  1  3  2  0
 25 28  1  0
 25 24  1  0
 25 26  1  1
 25 27  2  0
  6 11  1  0
  6 12  1  0
 29 36  1  0
 29 37  1  0
  9  7  1  1
  7 13  1  0
 10  8  1  1
  8 14  1  0
  4  5  1  0
 36 28  1  6
 33 30  1  6
 30 38  1  0
 34 31  1  6
 31 39  1  0
 35 32  1  1
 32 40  1  0
 41 43  1  0
 15 19  2  0
 42 43  2  0
 16 22  2  0
 12 17  1  6
 17 19  1  0
 17 20  1  0
 18 19  1  0
 18 22  1  0
 18 23  1  0
  9 10  1  0
  9 11  1  0
 10 12  1  0
 11  5  1  6
 33 34  1  0
 33 35  1  0
 34 36  1  0
 35 37  1  0
 37 43  1  1
 20 21  2  0
 21 22  1  0
M  CHG  3   2  -1  26  -1  41  -1
M  END
>  <COMPND>  (38) 
    udp_gluA.pdb 

>  <AUTHOR>  (38) 
    GENERATED BY OPEN BABEL 3.1.1

>  <MASTER>  (38) 
        0    0    0    0    0    0    0    0   56    0   56    0

>  <minimizedAffinity>  (38) 
-8.02699

>  <CNNscore>  (38) 
0.3339742720

>  <CNNaffinity>  (38) 
4.0287046432

>  <CNN_VS>  (38) 
1.3454836607

>  <CNNaffinity_variance>  (38) 
0.6499665380

$$$$
39
     RDKit          3D

 43 45  0  0  0  0  0  0  0  0999 V2000
   22.8225   72.8525   -4.1485 P   0  0  2  0  0  0  0  0  0  0  0  0
   24.2958   73.1751   -4.7351 O   0  0  0  0  0  0  0  0  0  0  0  0
   22.3530   73.7825   -3.0684 O   0  0  0  0  0  0  0  0  0  0  0  0
   22.8994   71.2878   -3.7439 O   0  0  0  0  0  0  0  0  0  0  0  0
   22.9897   70.9476   -2.3725 C   0  0  0  0  0  0  0  0  0  0  0  0
   21.5544   70.2638   -0.5697 O   0  0  0  0  0  0  0  0  0  0  0  0
   19.5884   69.4608   -2.6867 O   0  0  0  0  0  0  0  0  0  0  0  0
   18.6043   71.8583   -1.8382 O   0  0  0  0  0  0  0  0  0  0  0  0
   20.4913   70.5666   -2.6647 C   0  0  1  0  0  0  0  0  0  0  0  0
   19.9925   71.6317   -1.7113 C   0  0  2  0  0  0  0  0  0  0  0  0
   21.7767   70.1101   -1.9883 C   0  0  1  0  0  0  0  0  0  0  0  0
   20.3685   71.0469   -0.3605 C   0  0  2  0  0  0  0  0  0  0  0  0
   18.7594   69.7283   -3.1143 H   0  0  0  0  0  0  0  0  0  0  0  0
   18.4163   72.2308   -2.7145 H   0  0  0  0  0  0  0  0  0  0  0  0
   18.3894   72.4413    1.0939 O   0  0  0  0  0  0  0  0  0  0  0  0
   21.5441   74.9156    3.3675 O   0  0  0  0  0  0  0  0  0  0  0  0
   20.6448   72.0605    0.6178 N   0  0  0  0  0  0  0  0  0  0  0  0
   19.9625   73.6730    2.2242 N   0  0  0  0  0  0  0  0  0  0  0  0
   19.5779   72.7002    1.2921 C   0  0  0  0  0  0  0  0  0  0  0  0
   21.9593   72.4103    0.9019 C   0  0  0  0  0  0  0  0  0  0  0  0
   22.3102   73.3395    1.7931 C   0  0  0  0  0  0  0  0  0  0  0  0
   21.2559   74.0558    2.5405 C   0  0  0  0  0  0  0  0  0  0  0  0
   19.2370   74.1336    2.7047 H   0  0  0  0  0  0  0  0  0  0  0  0
   21.8986   72.8399   -5.4748 O   0  0  0  0  0  0  0  0  0  0  0  0
   20.4140   73.4226   -5.7397 P   0  0  2  0  0  0  0  0  0  0  0  0
   20.6970   74.9137   -6.3029 O   0  0  0  0  0  0  0  0  0  0  0  0
   19.5109   73.3753   -4.5414 O   0  0  0  0  0  0  0  0  0  0  0  0
   19.8737   72.6003   -7.0181 O   0  0  0  0  0  0  0  0  0  0  0  0
   19.0040   70.6073   -6.0798 O   0  0  0  0  0  0  0  0  0  0  0  0
   17.8986   70.2232  -10.0420 O   0  0  0  0  0  0  0  0  0  0  0  0
   20.5525   71.2188   -9.3348 O   0  0  0  0  0  0  0  0  0  0  0  0
   15.9225   70.9575   -8.0403 O   0  0  0  0  0  0  0  0  0  0  0  0
   18.1970   70.9235   -8.8343 C   0  0  2  0  0  0  0  0  0  0  0  0
   19.6383   70.6315   -8.4161 C   0  0  2  0  0  0  0  0  0  0  0  0
   17.2224   70.4438   -7.7563 C   0  0  1  0  0  0  0  0  0  0  0  0
   19.9221   71.1747   -7.0149 C   0  0  1  0  0  0  0  0  0  0  0  0
   17.6444   70.9235   -6.3705 C   0  0  1  0  0  0  0  0  0  0  0  0
   18.5056   70.5117  -10.7417 H   0  0  0  0  0  0  0  0  0  0  0  0
   20.3779   70.8788  -10.2260 H   0  0  0  0  0  0  0  0  0  0  0  0
   15.6421   70.6596   -8.9198 H   0  0  0  0  0  0  0  0  0  0  0  0
   17.2504   70.6407   -4.0757 O   0  0  0  0  0  0  0  0  0  0  0  0
   16.0711   69.3120   -5.5050 O   0  0  0  0  0  0  0  0  0  0  0  0
   16.8946   70.1922   -5.3050 C   0  0  0  0  0  0  0  0  0  0  0  0
  1  4  1  0
  1 24  1  0
  1  2  1  6
  1  3  2  0
 25 28  1  0
 25 24  1  0
 25 26  1  6
 25 27  2  0
  6 11  1  0
  6 12  1  0
 29 36  1  0
 29 37  1  0
  9  7  1  1
  7 13  1  0
 10  8  1  1
  8 14  1  0
  4  5  1  0
 36 28  1  6
 33 30  1  6
 30 38  1  0
 34 31  1  6
 31 39  1  0
 35 32  1  6
 32 40  1  0
 41 43  1  0
 15 19  2  0
 42 43  2  0
 16 22  2  0
 12 17  1  1
 17 19  1  0
 17 20  1  0
 18 19  1  0
 18 22  1  0
 18 23  1  0
  9 10  1  0
  9 11  1  0
 10 12  1  0
 11  5  1  6
 33 34  1  0
 33 35  1  0
 34 36  1  0
 35 37  1  0
 37 43  1  1
 20 21  2  0
 21 22  1  0
M  CHG  3   2  -1  26  -1  41  -1
M  END
>  <COMPND>  (39) 
    udp_gluA.pdb 

>  <AUTHOR>  (39) 
    GENERATED BY OPEN BABEL 3.1.1

>  <MASTER>  (39) 
        0    0    0    0    0    0    0    0   56    0   56    0

>  <minimizedAffinity>  (39) 
-8.15135

>  <CNNscore>  (39) 
0.3242115378

>  <CNNaffinity>  (39) 
4.0125093460

>  <CNN_VS>  (39) 
1.3009017706

>  <CNNaffinity_variance>  (39) 
0.3301935494

$$$$
40
     RDKit          3D

 43 45  0  0  0  0  0  0  0  0999 V2000
   19.4647   72.0256   -2.7175 P   0  0  2  0  0  0  0  0  0  0  0  0
   18.0741   72.4924   -3.4008 O   0  0  0  0  0  0  0  0  0  0  0  0
   19.3979   70.7273   -1.9679 O   0  0  0  0  0  0  0  0  0  0  0  0
   19.9242   73.3135   -1.8526 O   0  0  0  0  0  0  0  0  0  0  0  0
   19.9865   73.1941   -0.4432 C   0  0  0  0  0  0  0  0  0  0  0  0
   22.0523   74.1157    0.3699 O   0  0  0  0  0  0  0  0  0  0  0  0
   22.7903   71.3097    1.1272 O   0  0  0  0  0  0  0  0  0  0  0  0
   22.0051   72.3825    3.5081 O   0  0  0  0  0  0  0  0  0  0  0  0
   21.5149   71.9504    1.1661 C   0  0  1  0  0  0  0  0  0  0  0  0
   21.4513   72.9214    2.3260 C   0  0  2  0  0  0  0  0  0  0  0  0
   21.4204   72.8818   -0.0347 C   0  0  1  0  0  0  0  0  0  0  0  0
   22.2457   74.1017    1.7932 C   0  0  2  0  0  0  0  0  0  0  0  0
   22.8741   70.7093    1.8849 H   0  0  0  0  0  0  0  0  0  0  0  0
   21.4636   71.6346    3.8071 H   0  0  0  0  0  0  0  0  0  0  0  0
   23.8056   76.4548    1.8685 O   0  0  0  0  0  0  0  0  0  0  0  0
   20.4313   78.8447    3.9048 O   0  0  0  0  0  0  0  0  0  0  0  0
   21.7995   75.3529    2.3374 N   0  0  0  0  0  0  0  0  0  0  0  0
   22.1239   77.6426    2.8835 N   0  0  0  0  0  0  0  0  0  0  0  0
   22.6617   76.4748    2.3267 C   0  0  0  0  0  0  0  0  0  0  0  0
   20.5214   75.4604    2.8720 C   0  0  0  0  0  0  0  0  0  0  0  0
   20.0228   76.5803    3.3992 C   0  0  0  0  0  0  0  0  0  0  0  0
   20.8593   77.7981    3.4277 C   0  0  0  0  0  0  0  0  0  0  0  0
   22.7062   78.4365    2.8892 H   0  0  0  0  0  0  0  0  0  0  0  0
   20.4998   72.0336   -3.9591 O   0  0  0  0  0  0  0  0  0  0  0  0
   20.6104   73.0106   -5.2424 P   0  0  2  0  0  0  0  0  0  0  0  0
   22.1230   72.7658   -5.7643 O   0  0  0  0  0  0  0  0  0  0  0  0
   20.2807   74.4464   -4.9535 O   0  0  0  0  0  0  0  0  0  0  0  0
   19.6765   72.3216   -6.3630 O   0  0  0  0  0  0  0  0  0  0  0  0
   18.9452   70.1353   -5.8203 O   0  0  0  0  0  0  0  0  0  0  0  0
   17.7851   70.4530   -9.7727 O   0  0  0  0  0  0  0  0  0  0  0  0
   20.3891   71.4563   -8.9085 O   0  0  0  0  0  0  0  0  0  0  0  0
   15.8096   70.6647   -7.6506 O   0  0  0  0  0  0  0  0  0  0  0  0
   18.0657   70.9250   -8.4550 C   0  0  2  0  0  0  0  0  0  0  0  0
   19.5299   70.6478   -8.1131 C   0  0  2  0  0  0  0  0  0  0  0  0
   17.1431   70.1875   -7.4820 C   0  0  1  0  0  0  0  0  0  0  0  0
   19.8092   70.9278   -6.6358 C   0  0  1  0  0  0  0  0  0  0  0  0
   17.5637   70.4168   -6.0331 C   0  0  1  0  0  0  0  0  0  0  0  0
   18.3598   70.9078  -10.4085 H   0  0  0  0  0  0  0  0  0  0  0  0
   20.2171   71.2840   -9.8471 H   0  0  0  0  0  0  0  0  0  0  0  0
   15.5297   70.5248   -8.5687 H   0  0  0  0  0  0  0  0  0  0  0  0
   17.7726   68.5736   -4.5976 O   0  0  0  0  0  0  0  0  0  0  0  0
   15.6830   69.4421   -4.8779 O   0  0  0  0  0  0  0  0  0  0  0  0
   16.8801   69.4491   -5.1229 C   0  0  0  0  0  0  0  0  0  0  0  0
  1  4  1  0
  1 24  1  0
  1  2  1  6
  1  3  2  0
 25 28  1  0
 25 24  1  0
 25 26  1  6
 25 27  2  0
  6 11  1  0
  6 12  1  0
 29 36  1  0
 29 37  1  0
  9  7  1  6
  7 13  1  0
 10  8  1  1
  8 14  1  0
  4  5  1  0
 36 28  1  6
 33 30  1  6
 30 38  1  0
 34 31  1  6
 31 39  1  0
 35 32  1  1
 32 40  1  0
 41 43  1  0
 15 19  2  0
 42 43  2  0
 16 22  2  0
 12 17  1  1
 17 19  1  0
 17 20  1  0
 18 19  1  0
 18 22  1  0
 18 23  1  0
  9 10  1  0
  9 11  1  0
 10 12  1  0
 11  5  1  1
 33 34  1  0
 33 35  1  0
 34 36  1  0
 35 37  1  0
 37 43  1  1
 20 21  2  0
 21 22  1  0
M  CHG  3   2  -1  26  -1  41  -1
M  END
>  <COMPND>  (40) 
    udp_gluA.pdb 

>  <AUTHOR>  (40) 
    GENERATED BY OPEN BABEL 3.1.1

>  <MASTER>  (40) 
        0    0    0    0    0    0    0    0   56    0   56    0

>  <minimizedAffinity>  (40) 
-7.65753

>  <CNNscore>  (40) 
0.3149738908

>  <CNNaffinity>  (40) 
4.0663671494

>  <CNN_VS>  (40) 
1.2807995081

>  <CNNaffinity_variance>  (40) 
0.0362823717

$$$$
41
     RDKit          3D

 43 45  0  0  0  0  0  0  0  0999 V2000
   21.1030   70.3880   -1.3641 P   0  0  2  0  0  0  0  0  0  0  0  0
   22.6475   69.9047   -1.3734 O   0  0  0  0  0  0  0  0  0  0  0  0
   20.1778   69.5368   -0.5449 O   0  0  0  0  0  0  0  0  0  0  0  0
   20.7290   70.5239   -2.9324 O   0  0  0  0  0  0  0  0  0  0  0  0
   19.6293   69.7850   -3.4317 C   0  0  0  0  0  0  0  0  0  0  0  0
   18.4533   71.4695   -4.6795 O   0  0  0  0  0  0  0  0  0  0  0  0
   16.0581   70.7621   -3.0199 O   0  0  0  0  0  0  0  0  0  0  0  0
   15.5663   69.4565   -5.3629 O   0  0  0  0  0  0  0  0  0  0  0  0
   17.0902   69.9143   -3.5244 C   0  0  1  0  0  0  0  0  0  0  0  0
   16.9125   69.7008   -5.0127 C   0  0  2  0  0  0  0  0  0  0  0  0
   18.4016   70.6859   -3.4676 C   0  0  1  0  0  0  0  0  0  0  0  0
   17.4374   71.0071   -5.5836 C   0  0  2  0  0  0  0  0  0  0  0  0
   15.2103   70.2908   -3.0463 H   0  0  0  0  0  0  0  0  0  0  0  0
   15.2793   68.6140   -4.9760 H   0  0  0  0  0  0  0  0  0  0  0  0
   15.9482   70.8848   -7.9803 O   0  0  0  0  0  0  0  0  0  0  0  0
   19.7522   70.3743  -10.5323 O   0  0  0  0  0  0  0  0  0  0  0  0
   18.0133   70.8427   -6.8883 N   0  0  0  0  0  0  0  0  0  0  0  0
   17.8442   70.6297   -9.2489 N   0  0  0  0  0  0  0  0  0  0  0  0
   17.1763   70.7935   -8.0282 C   0  0  0  0  0  0  0  0  0  0  0  0
   19.3914   70.7340   -7.0296 C   0  0  0  0  0  0  0  0  0  0  0  0
   20.0135   70.5783   -8.1998 C   0  0  0  0  0  0  0  0  0  0  0  0
   19.2118   70.5163   -9.4395 C   0  0  0  0  0  0  0  0  0  0  0  0
   17.2824   70.5905  -10.0565 H   0  0  0  0  0  0  0  0  0  0  0  0
   21.2073   71.9269   -0.8807 O   0  0  0  0  0  0  0  0  0  0  0  0
   20.0663   73.0523   -0.6680 P   0  0  2  0  0  0  0  0  0  0  0  0
   20.7620   74.0956    0.3556 O   0  0  0  0  0  0  0  0  0  0  0  0
   18.7474   72.5108   -0.1976 O   0  0  0  0  0  0  0  0  0  0  0  0
   20.0030   73.8417   -2.0735 O   0  0  0  0  0  0  0  0  0  0  0  0
   22.0791   74.0837   -3.1871 O   0  0  0  0  0  0  0  0  0  0  0  0
   19.6509   76.6083   -5.3776 O   0  0  0  0  0  0  0  0  0  0  0  0
   19.4742   76.5446   -2.4622 O   0  0  0  0  0  0  0  0  0  0  0  0
   20.4049   74.0142   -6.4512 O   0  0  0  0  0  0  0  0  0  0  0  0
   19.9604   75.4655   -4.5801 C   0  0  2  0  0  0  0  0  0  0  0  0
   20.5007   75.9191   -3.2236 C   0  0  2  0  0  0  0  0  0  0  0  0
   21.0136   74.6410   -5.3238 C   0  0  1  0  0  0  0  0  0  0  0  0
   21.0563   74.7343   -2.4321 C   0  0  1  0  0  0  0  0  0  0  0  0
   21.6096   73.5596   -4.4272 C   0  0  1  0  0  0  0  0  0  0  0  0
   18.9834   77.1476   -4.9249 H   0  0  0  0  0  0  0  0  0  0  0  0
   19.1170   77.2971   -2.9587 H   0  0  0  0  0  0  0  0  0  0  0  0
   20.0215   74.6916   -7.0299 H   0  0  0  0  0  0  0  0  0  0  0  0
   23.4891   72.1830   -4.1547 O   0  0  0  0  0  0  0  0  0  0  0  0
   23.2312   73.2027   -6.1778 O   0  0  0  0  0  0  0  0  0  0  0  0
   22.8462   72.9858   -5.0386 C   0  0  0  0  0  0  0  0  0  0  0  0
  1  4  1  0
  1 24  1  0
  1  2  1  6
  1  3  2  0
 25 28  1  0
 25 24  1  0
 25 26  1  1
 25 27  2  0
  6 11  1  0
  6 12  1  0
 29 36  1  0
 29 37  1  0
  9  7  1  6
  7 13  1  0
 10  8  1  1
  8 14  1  0
  4  5  1  0
 36 28  1  6
 33 30  1  6
 30 38  1  0
 34 31  1  1
 31 39  1  0
 35 32  1  6
 32 40  1  0
 41 43  1  0
 15 19  2  0
 42 43  2  0
 16 22  2  0
 12 17  1  6
 17 19  1  0
 17 20  1  0
 18 19  1  0
 18 22  1  0
 18 23  1  0
  9 10  1  0
  9 11  1  0
 10 12  1  0
 11  5  1  6
 33 34  1  0
 33 35  1  0
 34 36  1  0
 35 37  1  0
 37 43  1  6
 20 21  2  0
 21 22  1  0
M  CHG  3   2  -1  26  -1  41  -1
M  END
>  <COMPND>  (41) 
    udp_gluA.pdb 

>  <AUTHOR>  (41) 
    GENERATED BY OPEN BABEL 3.1.1

>  <MASTER>  (41) 
        0    0    0    0    0    0    0    0   56    0   56    0

>  <minimizedAffinity>  (41) 
-7.15046

>  <CNNscore>  (41) 
0.7645532489

>  <CNNaffinity>  (41) 
4.5320539474

>  <CNN_VS>  (41) 
3.4649965763

>  <CNNaffinity_variance>  (41) 
0.2314710617

$$$$
42
     RDKit          3D

 43 45  0  0  0  0  0  0  0  0999 V2000
   23.4844   70.7647   -2.3058 P   0  0  2  0  0  0  0  0  0  0  0  0
   23.6860   71.6280   -3.6597 O   0  0  0  0  0  0  0  0  0  0  0  0
   24.7209   70.0810   -1.8004 O   0  0  0  0  0  0  0  0  0  0  0  0
   22.2346   69.7950   -2.6457 O   0  0  0  0  0  0  0  0  0  0  0  0
   21.4056   70.1212   -3.7461 C   0  0  0  0  0  0  0  0  0  0  0  0
   19.2790   71.1170   -4.2597 O   0  0  0  0  0  0  0  0  0  0  0  0
   18.1561   69.3995   -2.0732 O   0  0  0  0  0  0  0  0  0  0  0  0
   17.4486   68.0349   -4.3256 O   0  0  0  0  0  0  0  0  0  0  0  0
   19.1916   69.1058   -3.0114 C   0  0  1  0  0  0  0  0  0  0  0  0
   18.6004   68.8503   -4.3816 C   0  0  2  0  0  0  0  0  0  0  0  0
   19.9916   70.3805   -3.2423 C   0  0  1  0  0  0  0  0  0  0  0  0
   18.2967   70.2592   -4.8619 C   0  0  2  0  0  0  0  0  0  0  0  0
   17.6312   68.5999   -1.9097 H   0  0  0  0  0  0  0  0  0  0  0  0
   17.6944   67.1490   -4.0147 H   0  0  0  0  0  0  0  0  0  0  0  0
   16.1405   69.8190   -6.6320 O   0  0  0  0  0  0  0  0  0  0  0  0
   18.7391   70.7581  -10.3211 O   0  0  0  0  0  0  0  0  0  0  0  0
   18.3820   70.3817   -6.2896 N   0  0  0  0  0  0  0  0  0  0  0  0
   17.4371   70.2861   -8.4677 N   0  0  0  0  0  0  0  0  0  0  0  0
   17.2397   70.1386   -7.0885 C   0  0  0  0  0  0  0  0  0  0  0  0
   19.5856   70.7405   -6.8843 C   0  0  0  0  0  0  0  0  0  0  0  0
   19.7583   70.8773   -8.2004 C   0  0  0  0  0  0  0  0  0  0  0  0
   18.6148   70.6404   -9.1058 C   0  0  0  0  0  0  0  0  0  0  0  0
   16.6566   70.1200   -9.0445 H   0  0  0  0  0  0  0  0  0  0  0  0
   22.8430   71.8391   -1.2825 O   0  0  0  0  0  0  0  0  0  0  0  0
   22.1144   71.6396    0.1468 P   0  0  2  0  0  0  0  0  0  0  0  0
   23.2435   70.8959    1.0370 O   0  0  0  0  0  0  0  0  0  0  0  0
   20.8046   70.9096    0.0738 O   0  0  0  0  0  0  0  0  0  0  0  0
   22.0191   73.1252    0.7685 O   0  0  0  0  0  0  0  0  0  0  0  0
   22.8779   74.0925    2.7525 O   0  0  0  0  0  0  0  0  0  0  0  0
   19.2188   75.9802    2.4123 O   0  0  0  0  0  0  0  0  0  0  0  0
   19.4656   73.1201    1.8709 O   0  0  0  0  0  0  0  0  0  0  0  0
   21.6627   77.4021    1.7366 O   0  0  0  0  0  0  0  0  0  0  0  0
   20.4108   75.3534    1.9388 C   0  0  2  0  0  0  0  0  0  0  0  0
   20.4800   73.9203    2.4669 C   0  0  2  0  0  0  0  0  0  0  0  0
   21.6052   76.1654    2.4450 C   0  0  1  0  0  0  0  0  0  0  0  0
   21.8443   73.2946    2.1740 C   0  0  1  0  0  0  0  0  0  0  0  0
   22.9182   75.4183    2.2295 C   0  0  1  0  0  0  0  0  0  0  0  0
   18.4462   75.4815    2.1030 H   0  0  0  0  0  0  0  0  0  0  0  0
   18.5971   73.5115    2.0525 H   0  0  0  0  0  0  0  0  0  0  0  0
   20.8328   77.8874    1.8654 H   0  0  0  0  0  0  0  0  0  0  0  0
   24.2590   77.3131    2.5666 O   0  0  0  0  0  0  0  0  0  0  0  0
   24.6350   75.5183    3.9218 O   0  0  0  0  0  0  0  0  0  0  0  0
   24.0237   76.0529    3.0088 C   0  0  0  0  0  0  0  0  0  0  0  0
  1  4  1  0
  1 24  1  0
  1  2  1  6
  1  3  2  0
 25 28  1  0
 25 24  1  0
 25 26  1  1
 25 27  2  0
  6 11  1  0
  6 12  1  0
 29 36  1  0
 29 37  1  0
  9  7  1  1
  7 13  1  0
 10  8  1  1
  8 14  1  0
  4  5  1  0
 36 28  1  6
 33 30  1  1
 30 38  1  0
 34 31  1  6
 31 39  1  0
 35 32  1  6
 32 40  1  0
 41 43  1  0
 15 19  2  0
 42 43  2  0
 16 22  2  0
 12 17  1  6
 17 19  1  0
 17 20  1  0
 18 19  1  0
 18 22  1  0
 18 23  1  0
  9 10  1  0
  9 11  1  0
 10 12  1  0
 11  5  1  6
 33 34  1  0
 33 35  1  0
 34 36  1  0
 35 37  1  0
 37 43  1  1
 20 21  2  0
 21 22  1  0
M  CHG  3   2  -1  26  -1  41  -1
M  END
>  <COMPND>  (42) 
    udp_gluA.pdb 

>  <AUTHOR>  (42) 
    GENERATED BY OPEN BABEL 3.1.1

>  <MASTER>  (42) 
        0    0    0    0    0    0    0    0   56    0   56    0

>  <minimizedAffinity>  (42) 
-8.16542

>  <CNNscore>  (42) 
0.6870728731

>  <CNNaffinity>  (42) 
4.6595082283

>  <CNN_VS>  (42) 
3.2014217377

>  <CNNaffinity_variance>  (42) 
0.0492207669

$$$$
43
     RDKit          3D

 43 45  0  0  0  0  0  0  0  0999 V2000
   22.5225   73.3772   -5.4387 P   0  0  2  0  0  0  0  0  0  0  0  0
   23.0547   74.4787   -6.4980 O   0  0  0  0  0  0  0  0  0  0  0  0
   23.5984   72.6452   -4.6913 O   0  0  0  0  0  0  0  0  0  0  0  0
   21.5191   72.4536   -6.3095 O   0  0  0  0  0  0  0  0  0  0  0  0
   20.3248   73.0320   -6.8030 C   0  0  0  0  0  0  0  0  0  0  0  0
   19.5378   70.8450   -7.4157 O   0  0  0  0  0  0  0  0  0  0  0  0
   18.3179   72.1607   -9.8182 O   0  0  0  0  0  0  0  0  0  0  0  0
   16.1807   71.8669   -8.1502 O   0  0  0  0  0  0  0  0  0  0  0  0
   18.4548   72.6588   -8.4872 C   0  0  1  0  0  0  0  0  0  0  0  0
   17.4626   71.9781   -7.5682 C   0  0  2  0  0  0  0  0  0  0  0  0
   19.7871   72.1684   -7.9369 C   0  0  1  0  0  0  0  0  0  0  0  0
   18.1200   70.6278   -7.3391 C   0  0  2  0  0  0  0  0  0  0  0  0
   17.4737   72.4610  -10.1909 H   0  0  0  0  0  0  0  0  0  0  0  0
   15.8046   72.7527   -8.2755 H   0  0  0  0  0  0  0  0  0  0  0  0
   15.5796   69.6248   -6.6200 O   0  0  0  0  0  0  0  0  0  0  0  0
   17.0112   68.5275   -2.3786 O   0  0  0  0  0  0  0  0  0  0  0  0
   17.8012   70.0742   -6.0535 N   0  0  0  0  0  0  0  0  0  0  0  0
   16.2948   69.0802   -4.5079 N   0  0  0  0  0  0  0  0  0  0  0  0
   16.4942   69.5980   -5.7944 C   0  0  0  0  0  0  0  0  0  0  0  0
   18.7771   70.0054   -5.0666 C   0  0  0  0  0  0  0  0  0  0  0  0
   18.5720   69.5090   -3.8451 C   0  0  0  0  0  0  0  0  0  0  0  0
   17.2336   68.9912   -3.4929 C   0  0  0  0  0  0  0  0  0  0  0  0
   15.3921   68.7445   -4.3033 H   0  0  0  0  0  0  0  0  0  0  0  0
   21.5143   74.2288   -4.5053 O   0  0  0  0  0  0  0  0  0  0  0  0
   21.7646   75.0171   -3.1161 P   0  0  2  0  0  0  0  0  0  0  0  0
   20.6510   76.1914   -3.1515 O   0  0  0  0  0  0  0  0  0  0  0  0
   23.1721   75.5050   -2.9298 O   0  0  0  0  0  0  0  0  0  0  0  0
   21.2506   74.0029   -1.9717 O   0  0  0  0  0  0  0  0  0  0  0  0
   22.3520   73.5989    0.0857 O   0  0  0  0  0  0  0  0  0  0  0  0
   20.2149   70.1003   -0.4249 O   0  0  0  0  0  0  0  0  0  0  0  0
   21.5940   71.3364   -2.6843 O   0  0  0  0  0  0  0  0  0  0  0  0
   19.3125   72.0956    1.4869 O   0  0  0  0  0  0  0  0  0  0  0  0
   20.4701   71.5001   -0.5404 C   0  0  2  0  0  0  0  0  0  0  0  0
   21.7635   71.7215   -1.3250 C   0  0  2  0  0  0  0  0  0  0  0  0
   20.5992   72.0754    0.8718 C   0  0  1  0  0  0  0  0  0  0  0  0
   22.1907   73.1890   -1.2728 C   0  0  1  0  0  0  0  0  0  0  0  0
   21.1496   73.4984    0.8455 C   0  0  1  0  0  0  0  0  0  0  0  0
   20.1292   69.7130   -1.3103 H   0  0  0  0  0  0  0  0  0  0  0  0
   21.3226   70.4063   -2.7249 H   0  0  0  0  0  0  0  0  0  0  0  0
   18.9508   71.1959    1.5098 H   0  0  0  0  0  0  0  0  0  0  0  0
   21.8683   72.8487    2.9816 O   0  0  0  0  0  0  0  0  0  0  0  0
   21.6628   75.0854    2.5889 O   0  0  0  0  0  0  0  0  0  0  0  0
   21.5789   73.9264    2.2110 C   0  0  0  0  0  0  0  0  0  0  0  0
  1  4  1  0
  1 24  1  0
  1  2  1  6
  1  3  2  0
 25 28  1  0
 25 24  1  0
 25 26  1  6
 25 27  2  0
  6 11  1  0
  6 12  1  0
 29 36  1  0
 29 37  1  0
  9  7  1  6
  7 13  1  0
 10  8  1  6
  8 14  1  0
  4  5  1  0
 36 28  1  1
 33 30  1  1
 30 38  1  0
 34 31  1  6
 31 39  1  0
 35 32  1  6
 32 40  1  0
 41 43  1  0
 15 19  2  0
 42 43  2  0
 16 22  2  0
 12 17  1  1
 17 19  1  0
 17 20  1  0
 18 19  1  0
 18 22  1  0
 18 23  1  0
  9 10  1  0
  9 11  1  0
 10 12  1  0
 11  5  1  1
 33 34  1  0
 33 35  1  0
 34 36  1  0
 35 37  1  0
 37 43  1  1
 20 21  2  0
 21 22  1  0
M  CHG  3   2  -1  26  -1  41  -1
M  END
>  <COMPND>  (43) 
    udp_gluA.pdb 

>  <AUTHOR>  (43) 
    GENERATED BY OPEN BABEL 3.1.1

>  <MASTER>  (43) 
        0    0    0    0    0    0    0    0   56    0   56    0

>  <minimizedAffinity>  (43) 
-7.76727

>  <CNNscore>  (43) 
0.5007944703

>  <CNNaffinity>  (43) 
4.2625932693

>  <CNN_VS>  (43) 
2.1346831322

>  <CNNaffinity_variance>  (43) 
0.3493823707

$$$$
44
     RDKit          3D

 43 45  0  0  0  0  0  0  0  0999 V2000
   22.4436   70.7750   -1.4918 P   0  0  2  0  0  0  0  0  0  0  0  0
   24.0234   70.4808   -1.3008 O   0  0  0  0  0  0  0  0  0  0  0  0
   21.6568   70.8625   -0.2171 O   0  0  0  0  0  0  0  0  0  0  0  0
   21.9609   69.6400   -2.5390 O   0  0  0  0  0  0  0  0  0  0  0  0
   21.1687   70.0332   -3.6447 C   0  0  0  0  0  0  0  0  0  0  0  0
   19.0463   71.0316   -4.1702 O   0  0  0  0  0  0  0  0  0  0  0  0
   17.8721   69.1523   -2.1499 O   0  0  0  0  0  0  0  0  0  0  0  0
   17.2716   67.9355   -4.5153 O   0  0  0  0  0  0  0  0  0  0  0  0
   18.9464   68.9385   -3.0657 C   0  0  1  0  0  0  0  0  0  0  0  0
   18.4108   68.7691   -4.4717 C   0  0  2  0  0  0  0  0  0  0  0  0
   19.7329   70.2373   -3.1787 C   0  0  1  0  0  0  0  0  0  0  0  0
   18.1015   70.2031   -4.8662 C   0  0  2  0  0  0  0  0  0  0  0  0
   17.3550   68.3360   -2.0613 H   0  0  0  0  0  0  0  0  0  0  0  0
   17.5206   67.0339   -4.2561 H   0  0  0  0  0  0  0  0  0  0  0  0
   16.0091   69.8950   -6.7379 O   0  0  0  0  0  0  0  0  0  0  0  0
   18.7382   71.0795  -10.2583 O   0  0  0  0  0  0  0  0  0  0  0  0
   18.2377   70.4245   -6.2781 N   0  0  0  0  0  0  0  0  0  0  0  0
   17.3706   70.4842   -8.4896 N   0  0  0  0  0  0  0  0  0  0  0  0
   17.1242   70.2417   -7.1318 C   0  0  0  0  0  0  0  0  0  0  0  0
   19.4621   70.8195   -6.8033 C   0  0  0  0  0  0  0  0  0  0  0  0
   19.6815   71.0470   -8.0998 C   0  0  0  0  0  0  0  0  0  0  0  0
   18.5706   70.8779   -9.0593 C   0  0  0  0  0  0  0  0  0  0  0  0
   16.6110   70.3615   -9.1038 H   0  0  0  0  0  0  0  0  0  0  0  0
   22.4308   72.1224   -2.3848 O   0  0  0  0  0  0  0  0  0  0  0  0
   21.7053   73.5472   -2.1458 P   0  0  2  0  0  0  0  0  0  0  0  0
   22.7785   74.3630   -1.2496 O   0  0  0  0  0  0  0  0  0  0  0  0
   20.3379   73.4471   -1.5342 O   0  0  0  0  0  0  0  0  0  0  0  0
   21.7429   74.2724   -3.5864 O   0  0  0  0  0  0  0  0  0  0  0  0
   20.1083   74.2047   -5.2989 O   0  0  0  0  0  0  0  0  0  0  0  0
   23.5817   74.7332   -7.4725 O   0  0  0  0  0  0  0  0  0  0  0  0
   23.5145   72.8789   -5.2160 O   0  0  0  0  0  0  0  0  0  0  0  0
   21.7602   76.9624   -7.0677 O   0  0  0  0  0  0  0  0  0  0  0  0
   22.7154   74.8714   -6.3462 C   0  0  2  0  0  0  0  0  0  0  0  0
   22.3668   73.4883   -5.7959 C   0  0  2  0  0  0  0  0  0  0  0  0
   21.4488   75.5946   -6.8097 C   0  0  1  0  0  0  0  0  0  0  0  0
   21.2651   73.5816   -4.7393 C   0  0  1  0  0  0  0  0  0  0  0  0
   20.3536   75.5353   -5.7488 C   0  0  1  0  0  0  0  0  0  0  0  0
   24.3936   74.2761   -7.2020 H   0  0  0  0  0  0  0  0  0  0  0  0
   24.2177   72.8167   -5.8809 H   0  0  0  0  0  0  0  0  0  0  0  0
   22.4562   77.0141   -7.7413 H   0  0  0  0  0  0  0  0  0  0  0  0
   18.9261   77.2948   -6.3553 O   0  0  0  0  0  0  0  0  0  0  0  0
   18.1724   75.1729   -6.7144 O   0  0  0  0  0  0  0  0  0  0  0  0
   19.0361   75.9435   -6.3231 C   0  0  0  0  0  0  0  0  0  0  0  0
  1  4  1  0
  1 24  1  0
  1  2  1  1
  1  3  2  0
 25 28  1  0
 25 24  1  0
 25 26  1  1
 25 27  2  0
  6 11  1  0
  6 12  1  0
 29 36  1  0
 29 37  1  0
  9  7  1  1
  7 13  1  0
 10  8  1  1
  8 14  1  0
  4  5  1  0
 36 28  1  1
 33 30  1  6
 30 38  1  0
 34 31  1  1
 31 39  1  0
 35 32  1  1
 32 40  1  0
 41 43  1  0
 15 19  2  0
 42 43  2  0
 16 22  2  0
 12 17  1  6
 17 19  1  0
 17 20  1  0
 18 19  1  0
 18 22  1  0
 18 23  1  0
  9 10  1  0
  9 11  1  0
 10 12  1  0
 11  5  1  6
 33 34  1  0
 33 35  1  0
 34 36  1  0
 35 37  1  0
 37 43  1  6
 20 21  2  0
 21 22  1  0
M  CHG  3   2  -1  26  -1  41  -1
M  END
>  <COMPND>  (44) 
    udp_gluA.pdb 

>  <AUTHOR>  (44) 
    GENERATED BY OPEN BABEL 3.1.1

>  <MASTER>  (44) 
        0    0    0    0    0    0    0    0   56    0   56    0

>  <minimizedAffinity>  (44) 
-7.07675

>  <CNNscore>  (44) 
0.4934326112

>  <CNNaffinity>  (44) 
4.3244538307

>  <CNN_VS>  (44) 
2.1338264942

>  <CNNaffinity_variance>  (44) 
0.3106970191

$$$$
45
     RDKit          3D

 43 45  0  0  0  0  0  0  0  0999 V2000
   19.4136   70.0164   -2.2370 P   0  0  2  0  0  0  0  0  0  0  0  0
   19.9029   69.4170   -0.8156 O   0  0  0  0  0  0  0  0  0  0  0  0
   20.5057   70.2316   -3.2434 O   0  0  0  0  0  0  0  0  0  0  0  0
   18.5624   71.3314   -1.8318 O   0  0  0  0  0  0  0  0  0  0  0  0
   18.8767   72.5604   -2.4604 C   0  0  0  0  0  0  0  0  0  0  0  0
   20.0433   72.9550   -0.3962 O   0  0  0  0  0  0  0  0  0  0  0  0
   19.8235   75.8741   -1.0457 O   0  0  0  0  0  0  0  0  0  0  0  0
   22.3923   75.2974   -1.7561 O   0  0  0  0  0  0  0  0  0  0  0  0
   20.0255   74.7659   -1.9230 C   0  0  1  0  0  0  0  0  0  0  0  0
   21.4441   74.2516   -1.7997 C   0  0  2  0  0  0  0  0  0  0  0  0
   19.2139   73.5922   -1.3918 C   0  0  1  0  0  0  0  0  0  0  0  0
   21.3824   73.4638   -0.5023 C   0  0  2  0  0  0  0  0  0  0  0  0
   20.3323   76.6363   -1.3647 H   0  0  0  0  0  0  0  0  0  0  0  0
   22.3936   75.7682   -2.6048 H   0  0  0  0  0  0  0  0  0  0  0  0
   22.1605   72.0707    1.8281 O   0  0  0  0  0  0  0  0  0  0  0  0
   24.9214   69.2542   -0.5571 O   0  0  0  0  0  0  0  0  0  0  0  0
   22.3031   72.3624   -0.4856 N   0  0  0  0  0  0  0  0  0  0  0  0
   23.5356   70.6699    0.6381 N   0  0  0  0  0  0  0  0  0  0  0  0
   22.6271   71.7318    0.7389 C   0  0  0  0  0  0  0  0  0  0  0  0
   22.8729   71.9168   -1.6720 C   0  0  0  0  0  0  0  0  0  0  0  0
   23.7372   70.9032   -1.7523 C   0  0  0  0  0  0  0  0  0  0  0  0
   24.1293   70.1909   -0.5185 C   0  0  0  0  0  0  0  0  0  0  0  0
   23.7781   70.2166    1.4777 H   0  0  0  0  0  0  0  0  0  0  0  0
   18.2701   68.9709   -2.6974 O   0  0  0  0  0  0  0  0  0  0  0  0
   17.3218   68.9435   -4.0065 P   0  0  2  0  0  0  0  0  0  0  0  0
   16.1725   70.0273   -3.6534 O   0  0  0  0  0  0  0  0  0  0  0  0
   16.7994   67.5811   -4.3601 O   0  0  0  0  0  0  0  0  0  0  0  0
   18.2009   69.6444   -5.1634 O   0  0  0  0  0  0  0  0  0  0  0  0
   19.0051   71.8113   -5.6801 O   0  0  0  0  0  0  0  0  0  0  0  0
   17.5639   70.5540   -9.3421 O   0  0  0  0  0  0  0  0  0  0  0  0
   16.0581   70.0215   -6.8960 O   0  0  0  0  0  0  0  0  0  0  0  0
   20.4265   70.5966   -8.8371 O   0  0  0  0  0  0  0  0  0  0  0  0
   18.1569   70.4005   -8.0526 C   0  0  2  0  0  0  0  0  0  0  0  0
   17.1829   70.8890   -6.9801 C   0  0  2  0  0  0  0  0  0  0  0  0
   19.4425   71.2300   -8.0215 C   0  0  1  0  0  0  0  0  0  0  0  0
   17.8637   70.9557   -5.6123 C   0  0  1  0  0  0  0  0  0  0  0  0
   19.9912   71.3542   -6.6030 C   0  0  1  0  0  0  0  0  0  0  0  0
   16.7450   70.0355   -9.3854 H   0  0  0  0  0  0  0  0  0  0  0  0
   15.6215   69.9742   -7.7606 H   0  0  0  0  0  0  0  0  0  0  0  0
   20.0896   70.5113   -9.7427 H   0  0  0  0  0  0  0  0  0  0  0  0
   20.5055   73.5832   -6.0844 O   0  0  0  0  0  0  0  0  0  0  0  0
   22.2132   72.2675   -6.8273 O   0  0  0  0  0  0  0  0  0  0  0  0
   21.0375   72.4183   -6.5303 C   0  0  0  0  0  0  0  0  0  0  0  0
  1  4  1  0
  1 24  1  0
  1  2  1  1
  1  3  2  0
 25 28  1  0
 25 24  1  0
 25 26  1  1
 25 27  2  0
  6 11  1  0
  6 12  1  0
 29 36  1  0
 29 37  1  0
  9  7  1  1
  7 13  1  0
 10  8  1  1
  8 14  1  0
  4  5  1  0
 36 28  1  6
 33 30  1  6
 30 38  1  0
 34 31  1  1
 31 39  1  0
 35 32  1  6
 32 40  1  0
 41 43  1  0
 15 19  2  0
 42 43  2  0
 16 22  2  0
 12 17  1  6
 17 19  1  0
 17 20  1  0
 18 19  1  0
 18 22  1  0
 18 23  1  0
  9 10  1  0
  9 11  1  0
 10 12  1  0
 11  5  1  6
 33 34  1  0
 33 35  1  0
 34 36  1  0
 35 37  1  0
 37 43  1  6
 20 21  2  0
 21 22  1  0
M  CHG  3   2  -1  26  -1  41  -1
M  END
>  <COMPND>  (45) 
    udp_gluA.pdb 

>  <AUTHOR>  (45) 
    GENERATED BY OPEN BABEL 3.1.1

>  <MASTER>  (45) 
        0    0    0    0    0    0    0    0   56    0   56    0

>  <minimizedAffinity>  (45) 
-8.24423

>  <CNNscore>  (45) 
0.4806752801

>  <CNNaffinity>  (45) 
4.4198598862

>  <CNN_VS>  (45) 
2.1245174408

>  <CNNaffinity_variance>  (45) 
0.2495643646

$$$$
46
     RDKit          3D

 43 45  0  0  0  0  0  0  0  0999 V2000
   21.3405   70.5571   -1.1330 P   0  0  2  0  0  0  0  0  0  0  0  0
   22.8543   70.1952   -0.6898 O   0  0  0  0  0  0  0  0  0  0  0  0
   20.4140   70.8983   -0.0029 O   0  0  0  0  0  0  0  0  0  0  0  0
   20.8946   69.3030   -2.0529 O   0  0  0  0  0  0  0  0  0  0  0  0
   20.2510   69.5645   -3.2866 C   0  0  0  0  0  0  0  0  0  0  0  0
   18.3294   70.8097   -4.0176 O   0  0  0  0  0  0  0  0  0  0  0  0
   16.6957   68.8711   -2.4162 O   0  0  0  0  0  0  0  0  0  0  0  0
   16.3884   67.9475   -4.9635 O   0  0  0  0  0  0  0  0  0  0  0  0
   17.8829   68.6413   -3.1754 C   0  0  1  0  0  0  0  0  0  0  0  0
   17.5695   68.6585   -4.6565 C   0  0  2  0  0  0  0  0  0  0  0  0
   18.7801   69.8623   -3.0254 C   0  0  1  0  0  0  0  0  0  0  0  0
   17.4454   70.1467   -4.9354 C   0  0  2  0  0  0  0  0  0  0  0  0
   16.1066   68.1042   -2.4966 H   0  0  0  0  0  0  0  0  0  0  0  0
   16.5183   67.0056   -4.7690 H   0  0  0  0  0  0  0  0  0  0  0  0
   15.6952   70.0890   -7.1513 O   0  0  0  0  0  0  0  0  0  0  0  0
   19.0121   71.4696  -10.0386 O   0  0  0  0  0  0  0  0  0  0  0  0
   17.8253   70.4863   -6.2774 N   0  0  0  0  0  0  0  0  0  0  0  0
   17.3491   70.7757   -8.5874 N   0  0  0  0  0  0  0  0  0  0  0  0
   16.8693   70.4242   -7.3188 C   0  0  0  0  0  0  0  0  0  0  0  0
   19.1305   70.8768   -6.5510 C   0  0  0  0  0  0  0  0  0  0  0  0
   19.5730   71.2089   -7.7654 C   0  0  0  0  0  0  0  0  0  0  0  0
   18.6379   71.1698   -8.9088 C   0  0  0  0  0  0  0  0  0  0  0  0
   16.7024   70.7382   -9.3288 H   0  0  0  0  0  0  0  0  0  0  0  0
   21.5517   71.7422   -2.2118 O   0  0  0  0  0  0  0  0  0  0  0  0
   21.0214   73.2693   -2.2284 P   0  0  2  0  0  0  0  0  0  0  0  0
   21.8393   73.9582   -1.0132 O   0  0  0  0  0  0  0  0  0  0  0  0
   19.5297   73.4043   -2.1248 O   0  0  0  0  0  0  0  0  0  0  0  0
   21.6604   73.9099   -3.5640 O   0  0  0  0  0  0  0  0  0  0  0  0
   22.7157   75.9847   -4.0005 O   0  0  0  0  0  0  0  0  0  0  0  0
   20.6329   75.3462   -7.5108 O   0  0  0  0  0  0  0  0  0  0  0  0
   19.3944   74.7704   -4.9283 O   0  0  0  0  0  0  0  0  0  0  0  0
   23.5087   74.9298   -7.4240 O   0  0  0  0  0  0  0  0  0  0  0  0
   21.3578   74.9723   -6.3391 C   0  0  2  0  0  0  0  0  0  0  0  0
   20.6192   75.4745   -5.0983 C   0  0  2  0  0  0  0  0  0  0  0  0
   22.7493   75.6038   -6.4223 C   0  0  1  0  0  0  0  0  0  0  0  0
   21.4744   75.2964   -3.8430 C   0  0  1  0  0  0  0  0  0  0  0  0
   23.4906   75.4955   -5.0929 C   0  0  1  0  0  0  0  0  0  0  0  0
   19.7450   74.9562   -7.4801 H   0  0  0  0  0  0  0  0  0  0  0  0
   18.8469   74.8788   -5.7212 H   0  0  0  0  0  0  0  0  0  0  0  0
   23.0476   74.9912   -8.2752 H   0  0  0  0  0  0  0  0  0  0  0  0
   24.4202   77.5414   -4.4209 O   0  0  0  0  0  0  0  0  0  0  0  0
   25.7679   76.1199   -5.5881 O   0  0  0  0  0  0  0  0  0  0  0  0
   24.6894   76.3871   -5.0798 C   0  0  0  0  0  0  0  0  0  0  0  0
  1  4  1  0
  1 24  1  0
  1  2  1  1
  1  3  2  0
 25 28  1  0
 25 24  1  0
 25 26  1  1
 25 27  2  0
  6 11  1  0
  6 12  1  0
 29 36  1  0
 29 37  1  0
  9  7  1  1
  7 13  1  0
 10  8  1  1
  8 14  1  0
  4  5  1  0
 36 28  1  6
 33 30  1  6
 30 38  1  0
 34 31  1  1
 31 39  1  0
 35 32  1  6
 32 40  1  0
 41 43  1  0
 15 19  2  0
 42 43  2  0
 16 22  2  0
 12 17  1  6
 17 19  1  0
 17 20  1  0
 18 19  1  0
 18 22  1  0
 18 23  1  0
  9 10  1  0
  9 11  1  0
 10 12  1  0
 11  5  1  6
 33 34  1  0
 33 35  1  0
 34 36  1  0
 35 37  1  0
 37 43  1  6
 20 21  2  0
 21 22  1  0
M  CHG  3   2  -1  26  -1  41  -1
M  END
>  <COMPND>  (46) 
    udp_gluA.pdb 

>  <AUTHOR>  (46) 
    GENERATED BY OPEN BABEL 3.1.1

>  <MASTER>  (46) 
        0    0    0    0    0    0    0    0   56    0   56    0

>  <minimizedAffinity>  (46) 
-6.71507

>  <CNNscore>  (46) 
0.4613700509

>  <CNNaffinity>  (46) 
4.3002038002

>  <CNN_VS>  (46) 
1.9839853048

>  <CNNaffinity_variance>  (46) 
0.2209666967

$$$$
47
     RDKit          3D

 43 45  0  0  0  0  0  0  0  0999 V2000
   20.0589   74.1579   -3.8493 P   0  0  2  0  0  0  0  0  0  0  0  0
   19.1990   74.9463   -2.7277 O   0  0  0  0  0  0  0  0  0  0  0  0
   21.0944   74.9861   -4.5517 O   0  0  0  0  0  0  0  0  0  0  0  0
   18.9347   73.4851   -4.7989 O   0  0  0  0  0  0  0  0  0  0  0  0
   18.7491   74.0078   -6.1015 C   0  0  0  0  0  0  0  0  0  0  0  0
   19.6340   71.7979   -6.4343 O   0  0  0  0  0  0  0  0  0  0  0  0
   19.1617   72.2511   -9.3606 O   0  0  0  0  0  0  0  0  0  0  0  0
   17.0341   70.7021   -8.6465 O   0  0  0  0  0  0  0  0  0  0  0  0
   18.3856   72.6826   -8.2425 C   0  0  1  0  0  0  0  0  0  0  0  0
   17.6219   71.5158   -7.6530 C   0  0  2  0  0  0  0  0  0  0  0  0
   19.3444   73.0384   -7.1145 C   0  0  1  0  0  0  0  0  0  0  0  0
   18.7050   70.7929   -6.8706 C   0  0  2  0  0  0  0  0  0  0  0  0
   18.5707   72.0182  -10.0942 H   0  0  0  0  0  0  0  0  0  0  0  0
   16.3513   71.2074   -9.1160 H   0  0  0  0  0  0  0  0  0  0  0  0
   20.2999   69.5368   -4.9072 O   0  0  0  0  0  0  0  0  0  0  0  0
   16.6041   68.1906   -2.5046 O   0  0  0  0  0  0  0  0  0  0  0  0
   18.1856   70.1069   -5.7214 N   0  0  0  0  0  0  0  0  0  0  0  0
   18.4577   68.8666   -3.7130 N   0  0  0  0  0  0  0  0  0  0  0  0
   19.0729   69.5095   -4.7952 C   0  0  0  0  0  0  0  0  0  0  0  0
   16.8127   70.0323   -5.5201 C   0  0  0  0  0  0  0  0  0  0  0  0
   16.2411   69.4161   -4.4836 C   0  0  0  0  0  0  0  0  0  0  0  0
   17.0974   68.7654   -3.4703 C   0  0  0  0  0  0  0  0  0  0  0  0
   19.0549   68.4415   -3.0558 H   0  0  0  0  0  0  0  0  0  0  0  0
   20.6484   72.8938   -3.0324 O   0  0  0  0  0  0  0  0  0  0  0  0
   19.9730   71.9477   -1.9087 P   0  0  2  0  0  0  0  0  0  0  0  0
   20.9683   70.6724   -1.8521 O   0  0  0  0  0  0  0  0  0  0  0  0
   18.5375   71.6004   -2.1779 O   0  0  0  0  0  0  0  0  0  0  0  0
   20.2246   72.7226   -0.5163 O   0  0  0  0  0  0  0  0  0  0  0  0
   21.4173   74.7130   -0.0421 O   0  0  0  0  0  0  0  0  0  0  0  0
   22.0854   72.4971    3.3801 O   0  0  0  0  0  0  0  0  0  0  0  0
   22.2014   71.2310    0.7499 O   0  0  0  0  0  0  0  0  0  0  0  0
   20.1869   74.6984    3.4145 O   0  0  0  0  0  0  0  0  0  0  0  0
   21.3515   72.9459    2.2408 C   0  0  2  0  0  0  0  0  0  0  0  0
   22.1410   72.6357    0.9688 C   0  0  2  0  0  0  0  0  0  0  0  0
   21.1383   74.4549    2.3800 C   0  0  1  0  0  0  0  0  0  0  0  0
   21.5002   73.3024   -0.2492 C   0  0  1  0  0  0  0  0  0  0  0  0
   20.6156   75.0658    1.0830 C   0  0  1  0  0  0  0  0  0  0  0  0
   22.2330   71.5405    3.3135 H   0  0  0  0  0  0  0  0  0  0  0  0
   22.6067   70.8014    1.5190 H   0  0  0  0  0  0  0  0  0  0  0  0
   20.5075   74.3144    4.2455 H   0  0  0  0  0  0  0  0  0  0  0  0
   21.5602   76.9526    2.1073 O   0  0  0  0  0  0  0  0  0  0  0  0
   20.1414   77.3183    0.3602 O   0  0  0  0  0  0  0  0  0  0  0  0
   20.7227   76.5556    1.1174 C   0  0  0  0  0  0  0  0  0  0  0  0
  1  4  1  0
  1 24  1  0
  1  2  1  1
  1  3  2  0
 25 28  1  0
 25 24  1  0
 25 26  1  1
 25 27  2  0
  6 11  1  0
  6 12  1  0
 29 36  1  0
 29 37  1  0
  9  7  1  6
  7 13  1  0
 10  8  1  6
  8 14  1  0
  4  5  1  0
 36 28  1  1
 33 30  1  1
 30 38  1  0
 34 31  1  6
 31 39  1  0
 35 32  1  1
 32 40  1  0
 41 43  1  0
 15 19  2  0
 42 43  2  0
 16 22  2  0
 12 17  1  1
 17 19  1  0
 17 20  1  0
 18 19  1  0
 18 22  1  0
 18 23  1  0
  9 10  1  0
  9 11  1  0
 10 12  1  0
 11  5  1  1
 33 34  1  0
 33 35  1  0
 34 36  1  0
 35 37  1  0
 37 43  1  1
 20 21  2  0
 21 22  1  0
M  CHG  3   2  -1  26  -1  41  -1
M  END
>  <COMPND>  (47) 
    udp_gluA.pdb 

>  <AUTHOR>  (47) 
    GENERATED BY OPEN BABEL 3.1.1

>  <MASTER>  (47) 
        0    0    0    0    0    0    0    0   56    0   56    0

>  <minimizedAffinity>  (47) 
-7.11080

>  <CNNscore>  (47) 
0.4419691265

>  <CNNaffinity>  (47) 
4.1368689537

>  <CNN_VS>  (47) 
1.8283683062

>  <CNNaffinity_variance>  (47) 
0.2515383363

$$$$
48
     RDKit          3D

 43 45  0  0  0  0  0  0  0  0999 V2000
   22.2384   72.6309   -4.2656 P   0  0  2  0  0  0  0  0  0  0  0  0
   23.7685   72.7339   -4.7823 O   0  0  0  0  0  0  0  0  0  0  0  0
   21.7469   73.8237   -3.4991 O   0  0  0  0  0  0  0  0  0  0  0  0
   22.1890   71.2194   -3.4764 O   0  0  0  0  0  0  0  0  0  0  0  0
   23.0732   71.0218   -2.3884 C   0  0  0  0  0  0  0  0  0  0  0  0
   22.7563   70.8884   -0.0094 O   0  0  0  0  0  0  0  0  0  0  0  0
   20.2002   69.4437   -0.6182 O   0  0  0  0  0  0  0  0  0  0  0  0
   19.3369   71.9659   -0.0442 O   0  0  0  0  0  0  0  0  0  0  0  0
   20.8185   70.5215   -1.3214 C   0  0  1  0  0  0  0  0  0  0  0  0
   20.6452   71.8155   -0.5546 C   0  0  2  0  0  0  0  0  0  0  0  0
   22.3261   70.3165   -1.2637 C   0  0  1  0  0  0  0  0  0  0  0  0
   21.6878   71.6747    0.5413 C   0  0  2  0  0  0  0  0  0  0  0  0
   19.2362   69.5528   -0.6413 H   0  0  0  0  0  0  0  0  0  0  0  0
   18.7105   72.0517   -0.7805 H   0  0  0  0  0  0  0  0  0  0  0  0
   21.7758   72.5461    3.2264 O   0  0  0  0  0  0  0  0  0  0  0  0
   23.7191   76.5572    2.0522 O   0  0  0  0  0  0  0  0  0  0  0  0
   22.2116   72.9422    0.9655 N   0  0  0  0  0  0  0  0  0  0  0  0
   22.7427   74.5434    2.6389 N   0  0  0  0  0  0  0  0  0  0  0  0
   22.2091   73.2832    2.3387 C   0  0  0  0  0  0  0  0  0  0  0  0
   22.7214   73.8311    0.0269 C   0  0  0  0  0  0  0  0  0  0  0  0
   23.2268   75.0289    0.3283 C   0  0  0  0  0  0  0  0  0  0  0  0
   23.2607   75.4622    1.7405 C   0  0  0  0  0  0  0  0  0  0  0  0
   22.7499   74.8038    3.5884 H   0  0  0  0  0  0  0  0  0  0  0  0
   21.4175   72.3176   -5.6224 O   0  0  0  0  0  0  0  0  0  0  0  0
   19.9042   71.7967   -5.8511 P   0  0  2  0  0  0  0  0  0  0  0  0
   19.1455   72.2589   -4.4979 O   0  0  0  0  0  0  0  0  0  0  0  0
   19.7964   70.3294   -6.1500 O   0  0  0  0  0  0  0  0  0  0  0  0
   19.3092   72.7596   -7.0006 O   0  0  0  0  0  0  0  0  0  0  0  0
   17.3202   74.0139   -6.7181 O   0  0  0  0  0  0  0  0  0  0  0  0
   17.6204   73.8297  -10.8344 O   0  0  0  0  0  0  0  0  0  0  0  0
   18.1927   71.4761   -9.2010 O   0  0  0  0  0  0  0  0  0  0  0  0
   18.2951   76.2842   -9.4305 O   0  0  0  0  0  0  0  0  0  0  0  0
   18.1071   73.8831   -9.4934 C   0  0  2  0  0  0  0  0  0  0  0  0
   17.5941   72.6717   -8.7142 C   0  0  2  0  0  0  0  0  0  0  0  0
   17.5992   75.1790   -8.8573 C   0  0  1  0  0  0  0  0  0  0  0  0
   17.9011   72.8107   -7.2225 C   0  0  1  0  0  0  0  0  0  0  0  0
   17.8298   75.1868   -7.3488 C   0  0  1  0  0  0  0  0  0  0  0  0
   17.9306   73.0142  -11.2588 H   0  0  0  0  0  0  0  0  0  0  0  0
   18.0022   71.3817  -10.1471 H   0  0  0  0  0  0  0  0  0  0  0  0
   18.1567   76.2907  -10.3906 H   0  0  0  0  0  0  0  0  0  0  0  0
   15.7264   76.1500   -6.9619 O   0  0  0  0  0  0  0  0  0  0  0  0
   17.5305   77.1782   -6.0199 O   0  0  0  0  0  0  0  0  0  0  0  0
   17.0501   76.2830   -6.6987 C   0  0  0  0  0  0  0  0  0  0  0  0
  1  4  1  0
  1 24  1  0
  1  2  1  6
  1  3  2  0
 25 28  1  0
 25 24  1  0
 25 26  1  1
 25 27  2  0
  6 11  1  0
  6 12  1  0
 29 36  1  0
 29 37  1  0
  9  7  1  1
  7 13  1  0
 10  8  1  1
  8 14  1  0
  4  5  1  0
 36 28  1  6
 33 30  1  6
 30 38  1  0
 34 31  1  6
 31 39  1  0
 35 32  1  6
 32 40  1  0
 41 43  1  0
 15 19  2  0
 42 43  2  0
 16 22  2  0
 12 17  1  6
 17 19  1  0
 17 20  1  0
 18 19  1  0
 18 22  1  0
 18 23  1  0
  9 10  1  0
  9 11  1  0
 10 12  1  0
 11  5  1  6
 33 34  1  0
 33 35  1  0
 34 36  1  0
 35 37  1  0
 37 43  1  1
 20 21  2  0
 21 22  1  0
M  CHG  3   2  -1  26  -1  41  -1
M  END
>  <COMPND>  (48) 
    udp_gluA.pdb 

>  <AUTHOR>  (48) 
    GENERATED BY OPEN BABEL 3.1.1

>  <MASTER>  (48) 
        0    0    0    0    0    0    0    0   56    0   56    0

>  <minimizedAffinity>  (48) 
-7.40001

>  <CNNscore>  (48) 
0.4320362806

>  <CNNaffinity>  (48) 
4.0641684532

>  <CNN_VS>  (48) 
1.7558681965

>  <CNNaffinity_variance>  (48) 
0.1119699851

$$$$
49
     RDKit          3D

 43 45  0  0  0  0  0  0  0  0999 V2000
   17.9349   75.1450   -4.5992 P   0  0  2  0  0  0  0  0  0  0  0  0
   16.3619   75.5090   -4.4889 O   0  0  0  0  0  0  0  0  0  0  0  0
   18.8584   76.1137   -3.9206 O   0  0  0  0  0  0  0  0  0  0  0  0
   18.1756   74.9385   -6.1858 O   0  0  0  0  0  0  0  0  0  0  0  0
   17.6447   73.7813   -6.8052 C   0  0  0  0  0  0  0  0  0  0  0  0
   19.2448   72.0339   -6.4005 O   0  0  0  0  0  0  0  0  0  0  0  0
   19.5320   71.8617   -9.3803 O   0  0  0  0  0  0  0  0  0  0  0  0
   17.8992   69.7517   -8.8161 O   0  0  0  0  0  0  0  0  0  0  0  0
   18.3672   72.1278   -8.5986 C   0  0  1  0  0  0  0  0  0  0  0  0
   17.8783   70.8568   -7.9370 C   0  0  2  0  0  0  0  0  0  0  0  0
   18.7873   72.9692   -7.4011 C   0  0  1  0  0  0  0  0  0  0  0  0
   18.8558   70.7054   -6.7839 C   0  0  2  0  0  0  0  0  0  0  0  0
   19.2886   71.3252  -10.1514 H   0  0  0  0  0  0  0  0  0  0  0  0
   17.2602   69.8962   -9.5322 H   0  0  0  0  0  0  0  0  0  0  0  0
   20.3194   69.7206   -4.5783 O   0  0  0  0  0  0  0  0  0  0  0  0
   16.5027   68.1900   -2.4964 O   0  0  0  0  0  0  0  0  0  0  0  0
   18.2698   70.0453   -5.6518 N   0  0  0  0  0  0  0  0  0  0  0  0
   18.4172   68.9583   -3.5440 N   0  0  0  0  0  0  0  0  0  0  0  0
   19.0942   69.5883   -4.5965 C   0  0  0  0  0  0  0  0  0  0  0  0
   16.8941   69.8579   -5.5937 C   0  0  0  0  0  0  0  0  0  0  0  0
   16.2632   69.2557   -4.5837 C   0  0  0  0  0  0  0  0  0  0  0  0
   17.0515   68.7482   -3.4416 C   0  0  0  0  0  0  0  0  0  0  0  0
   18.9702   68.6298   -2.7986 H   0  0  0  0  0  0  0  0  0  0  0  0
   17.9996   73.6363   -4.0224 O   0  0  0  0  0  0  0  0  0  0  0  0
   18.3919   73.0759   -2.5576 P   0  0  2  0  0  0  0  0  0  0  0  0
   17.4733   71.7512   -2.4103 O   0  0  0  0  0  0  0  0  0  0  0  0
   18.2195   74.0743   -1.4498 O   0  0  0  0  0  0  0  0  0  0  0  0
   19.8945   72.5129   -2.7238 O   0  0  0  0  0  0  0  0  0  0  0  0
   21.6601   72.6045   -1.1478 O   0  0  0  0  0  0  0  0  0  0  0  0
   23.7255   72.6162   -4.7259 O   0  0  0  0  0  0  0  0  0  0  0  0
   21.3038   74.2191   -4.4086 O   0  0  0  0  0  0  0  0  0  0  0  0
   23.6177   70.2012   -3.1111 O   0  0  0  0  0  0  0  0  0  0  0  0
   22.6559   72.2867   -3.8397 C   0  0  2  0  0  0  0  0  0  0  0  0
   21.9885   73.5697   -3.3437 C   0  0  2  0  0  0  0  0  0  0  0  0
   23.2410   71.5020   -2.6633 C   0  0  1  0  0  0  0  0  0  0  0  0
   20.9939   73.2704   -2.2213 C   0  0  1  0  0  0  0  0  0  0  0  0
   22.2268   71.3540   -1.5328 C   0  0  1  0  0  0  0  0  0  0  0  0
   23.3774   73.1154   -5.4815 H   0  0  0  0  0  0  0  0  0  0  0  0
   21.9290   74.4118   -5.1245 H   0  0  0  0  0  0  0  0  0  0  0  0
   24.2630   70.2813   -3.8309 H   0  0  0  0  0  0  0  0  0  0  0  0
   23.6220   69.7681   -0.5130 O   0  0  0  0  0  0  0  0  0  0  0  0
   22.8025   71.4355    0.8088 O   0  0  0  0  0  0  0  0  0  0  0  0
   22.8936   70.8879   -0.2796 C   0  0  0  0  0  0  0  0  0  0  0  0
  1  4  1  0
  1 24  1  0
  1  2  1  6
  1  3  2  0
 25 28  1  0
 25 24  1  0
 25 26  1  1
 25 27  2  0
  6 11  1  0
  6 12  1  0
 29 36  1  0
 29 37  1  0
  9  7  1  6
  7 13  1  0
 10  8  1  6
  8 14  1  0
  4  5  1  0
 36 28  1  6
 33 30  1  6
 30 38  1  0
 34 31  1  6
 31 39  1  0
 35 32  1  6
 32 40  1  0
 41 43  1  0
 15 19  2  0
 42 43  2  0
 16 22  2  0
 12 17  1  1
 17 19  1  0
 17 20  1  0
 18 19  1  0
 18 22  1  0
 18 23  1  0
  9 10  1  0
  9 11  1  0
 10 12  1  0
 11  5  1  1
 33 34  1  0
 33 35  1  0
 34 36  1  0
 35 37  1  0
 37 43  1  1
 20 21  2  0
 21 22  1  0
M  CHG  3   2  -1  26  -1  41  -1
M  END
>  <COMPND>  (49) 
    udp_gluA.pdb 

>  <AUTHOR>  (49) 
    GENERATED BY OPEN BABEL 3.1.1

>  <MASTER>  (49) 
        0    0    0    0    0    0    0    0   56    0   56    0

>  <minimizedAffinity>  (49) 
-7.32192

>  <CNNscore>  (49) 
0.3838202059

>  <CNNaffinity>  (49) 
4.1178293228

>  <CNN_VS>  (49) 
1.5805060863

>  <CNNaffinity_variance>  (49) 
0.5929685831

$$$$
50
     RDKit          3D

 43 45  0  0  0  0  0  0  0  0999 V2000
   19.7308   75.5881   -2.9506 P   0  0  2  0  0  0  0  0  0  0  0  0
   21.1747   76.2195   -3.3186 O   0  0  0  0  0  0  0  0  0  0  0  0
   18.6113   76.5824   -2.8510 O   0  0  0  0  0  0  0  0  0  0  0  0
   20.0163   74.7157   -1.6182 O   0  0  0  0  0  0  0  0  0  0  0  0
   19.8405   75.3321   -0.3559 C   0  0  0  0  0  0  0  0  0  0  0  0
   19.3911   73.0067    0.0540 O   0  0  0  0  0  0  0  0  0  0  0  0
   18.9230   73.7920    2.9098 O   0  0  0  0  0  0  0  0  0  0  0  0
   21.4449   72.7571    2.9820 O   0  0  0  0  0  0  0  0  0  0  0  0
   19.8686   74.3097    1.9736 C   0  0  1  0  0  0  0  0  0  0  0  0
   20.9969   73.3214    1.7674 C   0  0  2  0  0  0  0  0  0  0  0  0
   19.2084   74.3303    0.6017 C   0  0  1  0  0  0  0  0  0  0  0  0
   20.3544   72.2965    0.8483 C   0  0  2  0  0  0  0  0  0  0  0  0
   19.3222   73.7692    3.7940 H   0  0  0  0  0  0  0  0  0  0  0  0
   21.8459   73.4493    3.5316 H   0  0  0  0  0  0  0  0  0  0  0  0
   19.8762   69.9080   -0.5810 O   0  0  0  0  0  0  0  0  0  0  0  0
   24.0812   69.9798   -2.4670 O   0  0  0  0  0  0  0  0  0  0  0  0
   21.3068   71.6690   -0.0235 N   0  0  0  0  0  0  0  0  0  0  0  0
   21.9714   69.9455   -1.5182 N   0  0  0  0  0  0  0  0  0  0  0  0
   20.9669   70.4705   -0.6944 C   0  0  0  0  0  0  0  0  0  0  0  0
   22.5599   72.2406   -0.2081 C   0  0  0  0  0  0  0  0  0  0  0  0
   23.5069   71.7285   -0.9966 C   0  0  0  0  0  0  0  0  0  0  0  0
   23.2326   70.4772   -1.7331 C   0  0  0  0  0  0  0  0  0  0  0  0
   21.7587   69.1103   -1.9942 H   0  0  0  0  0  0  0  0  0  0  0  0
   19.5283   74.4580   -4.0885 O   0  0  0  0  0  0  0  0  0  0  0  0
   19.7228   72.8538   -4.0377 P   0  0  2  0  0  0  0  0  0  0  0  0
   18.5203   72.3659   -3.0701 O   0  0  0  0  0  0  0  0  0  0  0  0
   21.0886   72.4128   -3.5972 O   0  0  0  0  0  0  0  0  0  0  0  0
   19.2958   72.3431   -5.5071 O   0  0  0  0  0  0  0  0  0  0  0  0
   18.7030   70.0566   -5.3338 O   0  0  0  0  0  0  0  0  0  0  0  0
   18.1179   70.7739   -9.3601 O   0  0  0  0  0  0  0  0  0  0  0  0
   20.4575   71.8585   -7.9874 O   0  0  0  0  0  0  0  0  0  0  0  0
   15.8380   70.5679   -7.5683 O   0  0  0  0  0  0  0  0  0  0  0  0
   18.1536   71.0984   -7.9703 C   0  0  2  0  0  0  0  0  0  0  0  0
   19.5704   70.8938   -7.4333 C   0  0  2  0  0  0  0  0  0  0  0  0
   17.1709   70.1769   -7.2442 C   0  0  1  0  0  0  0  0  0  0  0  0
   19.5993   71.0083   -5.9086 C   0  0  1  0  0  0  0  0  0  0  0  0
   17.3480   70.2557   -5.7306 C   0  0  1  0  0  0  0  0  0  0  0  0
   18.7348   71.3470   -9.8421 H   0  0  0  0  0  0  0  0  0  0  0  0
   20.4439   71.7916   -8.9547 H   0  0  0  0  0  0  0  0  0  0  0  0
   15.7122   70.5223   -8.5290 H   0  0  0  0  0  0  0  0  0  0  0  0
   17.5158   68.2532   -4.5209 O   0  0  0  0  0  0  0  0  0  0  0  0
   15.4175   69.0166   -4.9829 O   0  0  0  0  0  0  0  0  0  0  0  0
   16.6318   69.1328   -5.0536 C   0  0  0  0  0  0  0  0  0  0  0  0
  1  4  1  0
  1 24  1  0
  1  2  1  6
  1  3  2  0
 25 28  1  0
 25 24  1  0
 25 26  1  1
 25 27  2  0
  6 11  1  0
  6 12  1  0
 29 36  1  0
 29 37  1  0
  9  7  1  1
  7 13  1  0
 10  8  1  1
  8 14  1  0
  4  5  1  0
 36 28  1  6
 33 30  1  6
 30 38  1  0
 34 31  1  6
 31 39  1  0
 35 32  1  1
 32 40  1  0
 41 43  1  0
 15 19  2  0
 42 43  2  0
 16 22  2  0
 12 17  1  6
 17 19  1  0
 17 20  1  0
 18 19  1  0
 18 22  1  0
 18 23  1  0
  9 10  1  0
  9 11  1  0
 10 12  1  0
 11  5  1  6
 33 34  1  0
 33 35  1  0
 34 36  1  0
 35 37  1  0
 37 43  1  1
 20 21  2  0
 21 22  1  0
M  CHG  3   2  -1  26  -1  41  -1
M  END
>  <COMPND>  (50) 
    udp_gluA.pdb 

>  <AUTHOR>  (50) 
    GENERATED BY OPEN BABEL 3.1.1

>  <MASTER>  (50) 
        0    0    0    0    0    0    0    0   56    0   56    0

>  <minimizedAffinity>  (50) 
-7.74165

>  <CNNscore>  (50) 
0.3638251424

>  <CNNaffinity>  (50) 
4.0736074448

>  <CNN_VS>  (50) 
1.4820808172

>  <CNNaffinity_variance>  (50) 
0.5394014120

$$$$
51
     RDKit          3D

 43 45  0  0  0  0  0  0  0  0999 V2000
   19.6539   70.5284   -2.1978 P   0  0  2  0  0  0  0  0  0  0  0  0
   18.7058   71.8019   -1.8847 O   0  0  0  0  0  0  0  0  0  0  0  0
   19.5752   69.4174   -1.1922 O   0  0  0  0  0  0  0  0  0  0  0  0
   21.1198   71.1789   -2.4129 O   0  0  0  0  0  0  0  0  0  0  0  0
   22.1192   70.3997   -3.0441 C   0  0  0  0  0  0  0  0  0  0  0  0
   23.3239   72.1498   -1.9199 O   0  0  0  0  0  0  0  0  0  0  0  0
   25.5305   70.1501   -1.5679 O   0  0  0  0  0  0  0  0  0  0  0  0
   24.3292   70.1489    0.8801 O   0  0  0  0  0  0  0  0  0  0  0  0
   24.1170   69.9514   -1.5341 C   0  0  1  0  0  0  0  0  0  0  0  0
   23.5426   70.4917   -0.2417 C   0  0  2  0  0  0  0  0  0  0  0  0
   23.4883   70.8716   -2.5715 C   0  0  1  0  0  0  0  0  0  0  0  0
   23.5223   71.9875   -0.5065 C   0  0  2  0  0  0  0  0  0  0  0  0
   25.9543   69.5726   -0.9133 H   0  0  0  0  0  0  0  0  0  0  0  0
   24.3097   69.1868    1.0068 H   0  0  0  0  0  0  0  0  0  0  0  0
   23.4222   74.7706   -0.0364 O   0  0  0  0  0  0  0  0  0  0  0  0
   19.4009   74.4341    2.1907 O   0  0  0  0  0  0  0  0  0  0  0  0
   22.4607   72.6537    0.1935 N   0  0  0  0  0  0  0  0  0  0  0  0
   21.4200   74.6002    1.0733 N   0  0  0  0  0  0  0  0  0  0  0  0
   22.5066   74.0560    0.3761 C   0  0  0  0  0  0  0  0  0  0  0  0
   21.3894   71.9203    0.6890 C   0  0  0  0  0  0  0  0  0  0  0  0
   20.3608   72.4532    1.3515 C   0  0  0  0  0  0  0  0  0  0  0  0
   20.3322   73.9118    1.5856 C   0  0  0  0  0  0  0  0  0  0  0  0
   21.4307   75.5745    1.2145 H   0  0  0  0  0  0  0  0  0  0  0  0
   19.2179   70.1114   -3.6974 O   0  0  0  0  0  0  0  0  0  0  0  0
   17.8174   69.5502   -4.2783 P   0  0  2  0  0  0  0  0  0  0  0  0
   16.7201   70.5412   -3.6194 O   0  0  0  0  0  0  0  0  0  0  0  0
   17.5774   68.0934   -4.0062 O   0  0  0  0  0  0  0  0  0  0  0  0
   17.8354   69.9451   -5.8423 O   0  0  0  0  0  0  0  0  0  0  0  0
   18.8237   72.0893   -6.0286 O   0  0  0  0  0  0  0  0  0  0  0  0
   17.9965   71.1990   -9.9772 O   0  0  0  0  0  0  0  0  0  0  0  0
   16.0557   70.5831   -7.8823 O   0  0  0  0  0  0  0  0  0  0  0  0
   20.7223   71.0241   -8.9820 O   0  0  0  0  0  0  0  0  0  0  0  0
   18.3426   70.9137   -8.6219 C   0  0  2  0  0  0  0  0  0  0  0  0
   17.2186   71.3819   -7.6973 C   0  0  2  0  0  0  0  0  0  0  0  0
   19.6413   71.6562   -8.2991 C   0  0  1  0  0  0  0  0  0  0  0  0
   17.6479   71.3045   -6.2315 C   0  0  1  0  0  0  0  0  0  0  0  0
   19.9345   71.6405   -6.8017 C   0  0  1  0  0  0  0  0  0  0  0  0
   17.1740   70.7377  -10.2050 H   0  0  0  0  0  0  0  0  0  0  0  0
   15.7779   70.6273   -8.8104 H   0  0  0  0  0  0  0  0  0  0  0  0
   20.5481   71.0273   -9.9362 H   0  0  0  0  0  0  0  0  0  0  0  0
   20.5170   73.8937   -6.5092 O   0  0  0  0  0  0  0  0  0  0  0  0
   22.1550   72.3438   -6.1719 O   0  0  0  0  0  0  0  0  0  0  0  0
   21.0021   72.6283   -6.4599 C   0  0  0  0  0  0  0  0  0  0  0  0
  1  4  1  0
  1 24  1  0
  1  2  1  1
  1  3  2  0
 25 28  1  0
 25 24  1  0
 25 26  1  1
 25 27  2  0
  6 11  1  0
  6 12  1  0
 29 36  1  0
 29 37  1  0
  9  7  1  1
  7 13  1  0
 10  8  1  1
  8 14  1  0
  4  5  1  0
 36 28  1  6
 33 30  1  6
 30 38  1  0
 34 31  1  1
 31 39  1  0
 35 32  1  6
 32 40  1  0
 41 43  1  0
 15 19  2  0
 42 43  2  0
 16 22  2  0
 12 17  1  1
 17 19  1  0
 17 20  1  0
 18 19  1  0
 18 22  1  0
 18 23  1  0
  9 10  1  0
  9 11  1  0
 10 12  1  0
 11  5  1  1
 33 34  1  0
 33 35  1  0
 34 36  1  0
 35 37  1  0
 37 43  1  6
 20 21  2  0
 21 22  1  0
M  CHG  3   2  -1  26  -1  41  -1
M  END
>  <COMPND>  (51) 
    udp_gluA.pdb 

>  <AUTHOR>  (51) 
    GENERATED BY OPEN BABEL 3.1.1

>  <MASTER>  (51) 
        0    0    0    0    0    0    0    0   56    0   56    0

>  <minimizedAffinity>  (51) 
-8.35239

>  <CNNscore>  (51) 
0.3589188457

>  <CNNaffinity>  (51) 
4.0922918320

>  <CNN_VS>  (51) 
1.4688006639

>  <CNNaffinity_variance>  (51) 
0.3551808000

$$$$
52
     RDKit          3D

 43 45  0  0  0  0  0  0  0  0999 V2000
   20.5100   75.0797   -4.8930 P   0  0  2  0  0  0  0  0  0  0  0  0
   19.4983   74.2532   -3.9379 O   0  0  0  0  0  0  0  0  0  0  0  0
   20.4715   76.5696   -4.7181 O   0  0  0  0  0  0  0  0  0  0  0  0
   20.1710   74.5378   -6.3793 O   0  0  0  0  0  0  0  0  0  0  0  0
   18.9124   73.9308   -6.6070 C   0  0  0  0  0  0  0  0  0  0  0  0
   19.3160   71.6270   -7.1609 O   0  0  0  0  0  0  0  0  0  0  0  0
   18.1287   72.2568   -9.8414 O   0  0  0  0  0  0  0  0  0  0  0  0
   16.0680   71.0205   -8.5526 O   0  0  0  0  0  0  0  0  0  0  0  0
   17.7692   72.7577   -8.5536 C   0  0  1  0  0  0  0  0  0  0  0  0
   17.0268   71.6979   -7.7676 C   0  0  2  0  0  0  0  0  0  0  0  0
   19.0458   72.9218   -7.7403 C   0  0  1  0  0  0  0  0  0  0  0  0
   18.1581   70.7909   -7.3145 C   0  0  2  0  0  0  0  0  0  0  0  0
   17.3290   72.1437  -10.3795 H   0  0  0  0  0  0  0  0  0  0  0  0
   15.3691   71.6404   -8.8156 H   0  0  0  0  0  0  0  0  0  0  0  0
   20.1311   69.9090   -5.4963 O   0  0  0  0  0  0  0  0  0  0  0  0
   16.9641   68.3369   -2.5396 O   0  0  0  0  0  0  0  0  0  0  0  0
   17.8770   70.1480   -6.0621 N   0  0  0  0  0  0  0  0  0  0  0  0
   18.5519   69.1259   -4.0259 N   0  0  0  0  0  0  0  0  0  0  0  0
   18.9411   69.7435   -5.2218 C   0  0  0  0  0  0  0  0  0  0  0  0
   16.5606   69.9257   -5.6767 C   0  0  0  0  0  0  0  0  0  0  0  0
   16.2052   69.3359   -4.5337 C   0  0  0  0  0  0  0  0  0  0  0  0
   17.2564   68.8824   -3.5994 C   0  0  0  0  0  0  0  0  0  0  0  0
   19.2753   68.8337   -3.4254 H   0  0  0  0  0  0  0  0  0  0  0  0
   21.9429   74.4015   -4.5769 O   0  0  0  0  0  0  0  0  0  0  0  0
   22.4759   72.8921   -4.8035 P   0  0  2  0  0  0  0  0  0  0  0  0
   24.0326   72.9804   -4.3687 O   0  0  0  0  0  0  0  0  0  0  0  0
   22.2501   72.3609   -6.1895 O   0  0  0  0  0  0  0  0  0  0  0  0
   21.7746   72.0305   -3.6338 O   0  0  0  0  0  0  0  0  0  0  0  0
   22.8167   72.2872   -1.5226 O   0  0  0  0  0  0  0  0  0  0  0  0
   20.1400   69.2309   -0.7728 O   0  0  0  0  0  0  0  0  0  0  0  0
   21.6777   69.2766   -3.2562 O   0  0  0  0  0  0  0  0  0  0  0  0
   19.5888   71.9205    0.1828 O   0  0  0  0  0  0  0  0  0  0  0  0
   20.6158   70.4219   -1.3997 C   0  0  2  0  0  0  0  0  0  0  0  0
   21.9203   70.1246   -2.1397 C   0  0  2  0  0  0  0  0  0  0  0  0
   20.8495   71.4696   -0.3090 C   0  0  1  0  0  0  0  0  0  0  0  0
   22.5784   71.4156   -2.6285 C   0  0  1  0  0  0  0  0  0  0  0  0
   21.6213   72.6711   -0.8468 C   0  0  1  0  0  0  0  0  0  0  0  0
   19.9844   68.5505   -1.4467 H   0  0  0  0  0  0  0  0  0  0  0  0
   21.2599   68.4555   -2.9534 H   0  0  0  0  0  0  0  0  0  0  0  0
   19.0874   71.1653    0.5279 H   0  0  0  0  0  0  0  0  0  0  0  0
   22.1896   72.8079    1.4247 O   0  0  0  0  0  0  0  0  0  0  0  0
   22.4452   74.6966    0.1729 O   0  0  0  0  0  0  0  0  0  0  0  0
   22.1271   73.5211    0.2730 C   0  0  0  0  0  0  0  0  0  0  0  0
  1  4  1  0
  1 24  1  0
  1  2  1  1
  1  3  2  0
 25 28  1  0
 25 24  1  0
 25 26  1  1
 25 27  2  0
  6 11  1  0
  6 12  1  0
 29 36  1  0
 29 37  1  0
  9  7  1  6
  7 13  1  0
 10  8  1  6
  8 14  1  0
  4  5  1  0
 36 28  1  6
 33 30  1  1
 30 38  1  0
 34 31  1  6
 31 39  1  0
 35 32  1  6
 32 40  1  0
 41 43  1  0
 15 19  2  0
 42 43  2  0
 16 22  2  0
 12 17  1  1
 17 19  1  0
 17 20  1  0
 18 19  1  0
 18 22  1  0
 18 23  1  0
  9 10  1  0
  9 11  1  0
 10 12  1  0
 11  5  1  1
 33 34  1  0
 33 35  1  0
 34 36  1  0
 35 37  1  0
 37 43  1  1
 20 21  2  0
 21 22  1  0
M  CHG  3   2  -1  26  -1  41  -1
M  END
>  <COMPND>  (52) 
    udp_gluA.pdb 

>  <AUTHOR>  (52) 
    GENERATED BY OPEN BABEL 3.1.1

>  <MASTER>  (52) 
        0    0    0    0    0    0    0    0   56    0   56    0

>  <minimizedAffinity>  (52) 
-8.12264

>  <CNNscore>  (52) 
0.3577120304

>  <CNNaffinity>  (52) 
4.0947294235

>  <CNN_VS>  (52) 
1.4647339582

>  <CNNaffinity_variance>  (52) 
0.6515479088

$$$$
53
     RDKit          3D

 43 45  0  0  0  0  0  0  0  0999 V2000
   21.6650   73.6380   -5.7597 P   0  0  2  0  0  0  0  0  0  0  0  0
   21.2891   75.0855   -6.3781 O   0  0  0  0  0  0  0  0  0  0  0  0
   22.8672   72.9805   -6.3715 O   0  0  0  0  0  0  0  0  0  0  0  0
   20.2823   72.8033   -5.8563 O   0  0  0  0  0  0  0  0  0  0  0  0
   20.3069   71.5215   -6.4570 C   0  0  0  0  0  0  0  0  0  0  0  0
   20.0342   69.7555   -4.8494 O   0  0  0  0  0  0  0  0  0  0  0  0
   17.1539   70.5778   -4.7116 O   0  0  0  0  0  0  0  0  0  0  0  0
   18.2071   71.7183   -2.4697 O   0  0  0  0  0  0  0  0  0  0  0  0
   18.3180   71.3879   -4.8761 C   0  0  1  0  0  0  0  0  0  0  0  0
   19.0694   71.4979   -3.5663 C   0  0  2  0  0  0  0  0  0  0  0  0
   19.3048   70.6211   -5.7460 C   0  0  1  0  0  0  0  0  0  0  0  0
   19.7757   70.1549   -3.4940 C   0  0  2  0  0  0  0  0  0  0  0  0
   16.5086   71.0468   -4.1590 H   0  0  0  0  0  0  0  0  0  0  0  0
   17.7819   72.5859   -2.5621 H   0  0  0  0  0  0  0  0  0  0  0  0
   20.0664   69.6504   -0.7304 O   0  0  0  0  0  0  0  0  0  0  0  0
   24.6007   70.4655   -0.8729 O   0  0  0  0  0  0  0  0  0  0  0  0
   21.0208   70.2281   -2.7833 N   0  0  0  0  0  0  0  0  0  0  0  0
   22.3243   70.0578   -0.8038 N   0  0  0  0  0  0  0  0  0  0  0  0
   21.0582   69.9561   -1.3952 C   0  0  0  0  0  0  0  0  0  0  0  0
   22.1870   70.5642   -3.4599 C   0  0  0  0  0  0  0  0  0  0  0  0
   23.3865   70.6571   -2.8827 C   0  0  0  0  0  0  0  0  0  0  0  0
   23.5123   70.3894   -1.4349 C   0  0  0  0  0  0  0  0  0  0  0  0
   22.3751   69.8750    0.1622 H   0  0  0  0  0  0  0  0  0  0  0  0
   21.7960   73.9423   -4.1776 O   0  0  0  0  0  0  0  0  0  0  0  0
   21.1965   75.1414   -3.2741 P   0  0  2  0  0  0  0  0  0  0  0  0
   19.5962   74.9256   -3.3878 O   0  0  0  0  0  0  0  0  0  0  0  0
   21.6661   76.5095   -3.6762 O   0  0  0  0  0  0  0  0  0  0  0  0
   21.5560   74.7294   -1.7564 O   0  0  0  0  0  0  0  0  0  0  0  0
   20.8126   73.5471    0.1564 O   0  0  0  0  0  0  0  0  0  0  0  0
   21.0488   77.4122    1.5963 O   0  0  0  0  0  0  0  0  0  0  0  0
   19.9438   76.8850   -1.0561 O   0  0  0  0  0  0  0  0  0  0  0  0
   23.0892   75.4652    2.3012 O   0  0  0  0  0  0  0  0  0  0  0  0
   21.4181   76.3008    0.7800 C   0  0  2  0  0  0  0  0  0  0  0  0
   20.2288   75.8841   -0.0857 C   0  0  2  0  0  0  0  0  0  0  0  0
   21.8325   75.1529    1.7033 C   0  0  1  0  0  0  0  0  0  0  0  0
   20.5097   74.5621   -0.8014 C   0  0  1  0  0  0  0  0  0  0  0  0
   21.9704   73.8418    0.9347 C   0  0  1  0  0  0  0  0  0  0  0  0
   20.7815   78.1541    1.0312 H   0  0  0  0  0  0  0  0  0  0  0  0
   19.7649   77.7267   -0.6090 H   0  0  0  0  0  0  0  0  0  0  0  0
   23.0151   76.2977    2.7934 H   0  0  0  0  0  0  0  0  0  0  0  0
   21.6685   73.0510    3.1221 O   0  0  0  0  0  0  0  0  0  0  0  0
   22.4005   71.5533    1.5664 O   0  0  0  0  0  0  0  0  0  0  0  0
   22.0477   72.6822    1.8735 C   0  0  0  0  0  0  0  0  0  0  0  0
  1  4  1  0
  1 24  1  0
  1  2  1  6
  1  3  2  0
 25 28  1  0
 25 24  1  0
 25 26  1  1
 25 27  2  0
  6 11  1  0
  6 12  1  0
 29 36  1  0
 29 37  1  0
  9  7  1  1
  7 13  1  0
 10  8  1  1
  8 14  1  0
  4  5  1  0
 36 28  1  6
 33 30  1  1
 30 38  1  0
 34 31  1  6
 31 39  1  0
 35 32  1  6
 32 40  1  0
 41 43  1  0
 15 19  2  0
 42 43  2  0
 16 22  2  0
 12 17  1  1
 17 19  1  0
 17 20  1  0
 18 19  1  0
 18 22  1  0
 18 23  1  0
  9 10  1  0
  9 11  1  0
 10 12  1  0
 11  5  1  1
 33 34  1  0
 33 35  1  0
 34 36  1  0
 35 37  1  0
 37 43  1  1
 20 21  2  0
 21 22  1  0
M  CHG  3   2  -1  26  -1  41  -1
M  END
>  <COMPND>  (53) 
    udp_gluA.pdb 

>  <AUTHOR>  (53) 
    GENERATED BY OPEN BABEL 3.1.1

>  <MASTER>  (53) 
        0    0    0    0    0    0    0    0   56    0   56    0

>  <minimizedAffinity>  (53) 
-6.42901

>  <CNNscore>  (53) 
0.3454089165

>  <CNNaffinity>  (53) 
4.0976443291

>  <CNN_VS>  (53) 
1.4153628349

>  <CNNaffinity_variance>  (53) 
0.2676867545

$$$$
54
     RDKit          3D

 43 45  0  0  0  0  0  0  0  0999 V2000
   20.7051   70.2648   -1.7944 P   0  0  2  0  0  0  0  0  0  0  0  0
   22.0949   69.6955   -2.3972 O   0  0  0  0  0  0  0  0  0  0  0  0
   19.9891   69.3314   -0.8627 O   0  0  0  0  0  0  0  0  0  0  0  0
   19.8735   70.7254   -3.1037 O   0  0  0  0  0  0  0  0  0  0  0  0
   20.1322   72.0041   -3.6536 C   0  0  0  0  0  0  0  0  0  0  0  0
   20.4225   71.6080   -6.0066 O   0  0  0  0  0  0  0  0  0  0  0  0
   23.1713   72.7584   -5.6717 O   0  0  0  0  0  0  0  0  0  0  0  0
   21.7803   74.8424   -6.7478 O   0  0  0  0  0  0  0  0  0  0  0  0
   21.9516   73.1306   -5.0296 C   0  0  1  0  0  0  0  0  0  0  0  0
   21.0627   73.8892   -5.9922 C   0  0  2  0  0  0  0  0  0  0  0  0
   21.1450   71.8630   -4.7826 C   0  0  1  0  0  0  0  0  0  0  0  0
   20.4975   72.7691   -6.8490 C   0  0  2  0  0  0  0  0  0  0  0  0
   23.7038   73.5521   -5.8399 H   0  0  0  0  0  0  0  0  0  0  0  0
   22.1193   75.5342   -6.1574 H   0  0  0  0  0  0  0  0  0  0  0  0
   19.3448   71.5672   -9.1300 O   0  0  0  0  0  0  0  0  0  0  0  0
   15.4563   73.9989   -8.6713 O   0  0  0  0  0  0  0  0  0  0  0  0
   19.1854   73.0696   -7.3479 N   0  0  0  0  0  0  0  0  0  0  0  0
   17.4096   72.7802   -8.8999 N   0  0  0  0  0  0  0  0  0  0  0  0
   18.7007   72.4095   -8.5018 C   0  0  0  0  0  0  0  0  0  0  0  0
   18.3933   74.0068   -6.6958 C   0  0  0  0  0  0  0  0  0  0  0  0
   17.1644   74.3496   -7.0872 C   0  0  0  0  0  0  0  0  0  0  0  0
   16.5839   73.7071   -8.2845 C   0  0  0  0  0  0  0  0  0  0  0  0
   17.0514   72.3356   -9.7020 H   0  0  0  0  0  0  0  0  0  0  0  0
   21.1464   71.6712   -1.1309 O   0  0  0  0  0  0  0  0  0  0  0  0
   21.0763   72.1918    0.3981 P   0  0  2  0  0  0  0  0  0  0  0  0
   22.3307   71.4474    1.1001 O   0  0  0  0  0  0  0  0  0  0  0  0
   19.7568   71.9482    1.0716 O   0  0  0  0  0  0  0  0  0  0  0  0
   21.5134   73.7428    0.3228 O   0  0  0  0  0  0  0  0  0  0  0  0
   21.7614   74.8406    2.4066 O   0  0  0  0  0  0  0  0  0  0  0  0
   21.8927   78.0135   -0.2360 O   0  0  0  0  0  0  0  0  0  0  0  0
   19.9611   75.8539   -0.6098 O   0  0  0  0  0  0  0  0  0  0  0  0
   24.3368   77.0470    1.0061 O   0  0  0  0  0  0  0  0  0  0  0  0
   22.0990   76.6690    0.1972 C   0  0  2  0  0  0  0  0  0  0  0  0
   20.7549   76.0353    0.5571 C   0  0  2  0  0  0  0  0  0  0  0  0
   23.0166   76.7022    1.4215 C   0  0  1  0  0  0  0  0  0  0  0  0
   20.9537   74.6813    1.2397 C   0  0  1  0  0  0  0  0  0  0  0  0
   23.0634   75.3460    2.1195 C   0  0  1  0  0  0  0  0  0  0  0  0
   21.3122   78.0175   -1.0134 H   0  0  0  0  0  0  0  0  0  0  0  0
   19.8312   76.7091   -1.0482 H   0  0  0  0  0  0  0  0  0  0  0  0
   24.3209   77.9082    0.5601 H   0  0  0  0  0  0  0  0  0  0  0  0
   22.9675   74.7700    4.3912 O   0  0  0  0  0  0  0  0  0  0  0  0
   24.6939   76.1038    3.7284 O   0  0  0  0  0  0  0  0  0  0  0  0
   23.6822   75.4677    3.4739 C   0  0  0  0  0  0  0  0  0  0  0  0
  1  4  1  0
  1 24  1  0
  1  2  1  6
  1  3  2  0
 25 28  1  0
 25 24  1  0
 25 26  1  1
 25 27  2  0
  6 11  1  0
  6 12  1  0
 29 36  1  0
 29 37  1  0
  9  7  1  6
  7 13  1  0
 10  8  1  6
  8 14  1  0
  4  5  1  0
 36 28  1  6
 33 30  1  1
 30 38  1  0
 34 31  1  6
 31 39  1  0
 35 32  1  6
 32 40  1  0
 41 43  1  0
 15 19  2  0
 42 43  2  0
 16 22  2  0
 12 17  1  1
 17 19  1  0
 17 20  1  0
 18 19  1  0
 18 22  1  0
 18 23  1  0
  9 10  1  0
  9 11  1  0
 10 12  1  0
 11  5  1  1
 33 34  1  0
 33 35  1  0
 34 36  1  0
 35 37  1  0
 37 43  1  1
 20 21  2  0
 21 22  1  0
M  CHG  3   2  -1  26  -1  41  -1
M  END
>  <COMPND>  (54) 
    udp_gluA.pdb 

>  <AUTHOR>  (54) 
    GENERATED BY OPEN BABEL 3.1.1

>  <MASTER>  (54) 
        0    0    0    0    0    0    0    0   56    0   56    0

>  <minimizedAffinity>  (54) 
-7.15541

>  <CNNscore>  (54) 
0.3352463245

>  <CNNaffinity>  (54) 
4.2650413513

>  <CNN_VS>  (54) 
1.4298394918

>  <CNNaffinity_variance>  (54) 
0.1619066745

$$$$
55
     RDKit          3D

 43 45  0  0  0  0  0  0  0  0999 V2000
   19.9988   73.1675   -3.5881 P   0  0  2  0  0  0  0  0  0  0  0  0
   20.4883   74.6133   -3.0505 O   0  0  0  0  0  0  0  0  0  0  0  0
   18.5622   73.1043   -4.0171 O   0  0  0  0  0  0  0  0  0  0  0  0
   20.4243   72.1488   -2.4052 O   0  0  0  0  0  0  0  0  0  0  0  0
   21.1318   70.9715   -2.7488 C   0  0  0  0  0  0  0  0  0  0  0  0
   22.8035   72.4592   -1.8714 O   0  0  0  0  0  0  0  0  0  0  0  0
   24.7336   70.1891   -2.2074 O   0  0  0  0  0  0  0  0  0  0  0  0
   24.1810   70.1113    0.4618 O   0  0  0  0  0  0  0  0  0  0  0  0
   23.3581   70.1568   -1.8258 C   0  0  1  0  0  0  0  0  0  0  0  0
   23.1979   70.6436   -0.4011 C   0  0  2  0  0  0  0  0  0  0  0  0
   22.6263   71.2339   -2.6147 C   0  0  1  0  0  0  0  0  0  0  0  0
   23.3184   72.1489   -0.5668 C   0  0  2  0  0  0  0  0  0  0  0  0
   25.2218   69.5094   -1.7163 H   0  0  0  0  0  0  0  0  0  0  0  0
   24.0616   69.1508    0.5345 H   0  0  0  0  0  0  0  0  0  0  0  0
   23.7042   74.8768    0.0550 O   0  0  0  0  0  0  0  0  0  0  0  0
   20.3607   74.8149    3.2269 O   0  0  0  0  0  0  0  0  0  0  0  0
   22.5626   72.8708    0.4174 N   0  0  0  0  0  0  0  0  0  0  0  0
   22.0393   74.8431    1.6349 N   0  0  0  0  0  0  0  0  0  0  0  0
   22.8358   74.2389    0.6533 C   0  0  0  0  0  0  0  0  0  0  0  0
   21.5632   72.2251    1.1351 C   0  0  0  0  0  0  0  0  0  0  0  0
   20.8121   72.8143    2.0676 C   0  0  0  0  0  0  0  0  0  0  0  0
   21.0341   74.2424    2.3755 C   0  0  0  0  0  0  0  0  0  0  0  0
   22.2124   75.7948    1.8182 H   0  0  0  0  0  0  0  0  0  0  0  0
   21.0656   72.8343   -4.7559 O   0  0  0  0  0  0  0  0  0  0  0  0
   21.1256   73.2996   -6.3030 P   0  0  2  0  0  0  0  0  0  0  0  0
   22.5041   72.6384   -6.8348 O   0  0  0  0  0  0  0  0  0  0  0  0
   21.0345   74.7847   -6.5034 O   0  0  0  0  0  0  0  0  0  0  0  0
   19.9608   72.4532   -7.0304 O   0  0  0  0  0  0  0  0  0  0  0  0
   19.2616   70.3749   -6.1354 O   0  0  0  0  0  0  0  0  0  0  0  0
   17.8068   70.1597   -9.9961 O   0  0  0  0  0  0  0  0  0  0  0  0
   20.4739   71.2323   -9.4763 O   0  0  0  0  0  0  0  0  0  0  0  0
   15.9990   70.6944   -7.7832 O   0  0  0  0  0  0  0  0  0  0  0  0
   18.1890   70.8054   -8.7816 C   0  0  2  0  0  0  0  0  0  0  0  0
   19.6734   70.5554   -8.5142 C   0  0  2  0  0  0  0  0  0  0  0  0
   17.3390   70.2243   -7.6494 C   0  0  1  0  0  0  0  0  0  0  0  0
   20.0654   71.0331   -7.1153 C   0  0  1  0  0  0  0  0  0  0  0  0
   17.8694   70.6457   -6.2820 C   0  0  1  0  0  0  0  0  0  0  0  0
   18.3339   70.5129  -10.7300 H   0  0  0  0  0  0  0  0  0  0  0  0
   20.2303   70.9342  -10.3663 H   0  0  0  0  0  0  0  0  0  0  0  0
   15.6496   70.4329   -8.6495 H   0  0  0  0  0  0  0  0  0  0  0  0
   18.1885   69.4417   -4.2945 O   0  0  0  0  0  0  0  0  0  0  0  0
   16.0670   69.5349   -5.1249 O   0  0  0  0  0  0  0  0  0  0  0  0
   17.2519   69.8244   -5.1974 C   0  0  0  0  0  0  0  0  0  0  0  0
  1  4  1  0
  1 24  1  0
  1  2  1  1
  1  3  2  0
 25 28  1  0
 25 24  1  0
 25 26  1  6
 25 27  2  0
  6 11  1  0
  6 12  1  0
 29 36  1  0
 29 37  1  0
  9  7  1  6
  7 13  1  0
 10  8  1  1
  8 14  1  0
  4  5  1  0
 36 28  1  6
 33 30  1  6
 30 38  1  0
 34 31  1  6
 31 39  1  0
 35 32  1  6
 32 40  1  0
 41 43  1  0
 15 19  2  0
 42 43  2  0
 16 22  2  0
 12 17  1  1
 17 19  1  0
 17 20  1  0
 18 19  1  0
 18 22  1  0
 18 23  1  0
  9 10  1  0
  9 11  1  0
 10 12  1  0
 11  5  1  1
 33 34  1  0
 33 35  1  0
 34 36  1  0
 35 37  1  0
 37 43  1  1
 20 21  2  0
 21 22  1  0
M  CHG  3   2  -1  26  -1  41  -1
M  END
>  <COMPND>  (55) 
    udp_gluA.pdb 

>  <AUTHOR>  (55) 
    GENERATED BY OPEN BABEL 3.1.1

>  <MASTER>  (55) 
        0    0    0    0    0    0    0    0   56    0   56    0

>  <minimizedAffinity>  (55) 
-8.12302

>  <CNNscore>  (55) 
0.3297648728

>  <CNNaffinity>  (55) 
4.0624008179

>  <CNN_VS>  (55) 
1.3396370411

>  <CNNaffinity_variance>  (55) 
0.3925769925

$$$$
56
     RDKit          3D

 43 45  0  0  0  0  0  0  0  0999 V2000
   21.0189   70.2731   -1.7209 P   0  0  2  0  0  0  0  0  0  0  0  0
   20.0070   69.3378   -0.8722 O   0  0  0  0  0  0  0  0  0  0  0  0
   21.8112   69.5561   -2.7744 O   0  0  0  0  0  0  0  0  0  0  0  0
   21.8856   71.0361   -0.5875 O   0  0  0  0  0  0  0  0  0  0  0  0
   21.4948   72.3412   -0.2021 C   0  0  0  0  0  0  0  0  0  0  0  0
   21.2968   72.8965    2.1282 O   0  0  0  0  0  0  0  0  0  0  0  0
   18.3562   72.4076    1.8036 O   0  0  0  0  0  0  0  0  0  0  0  0
   18.5197   75.1285    1.7280 O   0  0  0  0  0  0  0  0  0  0  0  0
   19.2840   72.9809    0.8822 C   0  0  1  0  0  0  0  0  0  0  0  0
   19.6467   74.3871    1.3102 C   0  0  2  0  0  0  0  0  0  0  0  0
   20.6105   72.2492    1.0349 C   0  0  1  0  0  0  0  0  0  0  0  0
   20.6289   74.1294    2.4402 C   0  0  2  0  0  0  0  0  0  0  0  0
   17.5008   72.8589    1.7246 H   0  0  0  0  0  0  0  0  0  0  0  0
   17.9253   75.2663    0.9732 H   0  0  0  0  0  0  0  0  0  0  0  0
   20.3051   76.4395    4.0323 O   0  0  0  0  0  0  0  0  0  0  0  0
   24.4500   78.0648    2.8397 O   0  0  0  0  0  0  0  0  0  0  0  0
   21.6076   75.1723    2.5640 N   0  0  0  0  0  0  0  0  0  0  0  0
   22.3694   77.2473    3.4360 N   0  0  0  0  0  0  0  0  0  0  0  0
   21.3464   76.2910    3.3900 C   0  0  0  0  0  0  0  0  0  0  0  0
   22.8102   75.0804    1.8738 C   0  0  0  0  0  0  0  0  0  0  0  0
   23.7758   75.9999    1.9278 C   0  0  0  0  0  0  0  0  0  0  0  0
   23.5819   77.2003    2.7673 C   0  0  0  0  0  0  0  0  0  0  0  0
   22.2096   78.0362    4.0029 H   0  0  0  0  0  0  0  0  0  0  0  0
   20.0502   71.4385   -2.2835 O   0  0  0  0  0  0  0  0  0  0  0  0
   20.2222   72.4510   -3.5320 P   0  0  2  0  0  0  0  0  0  0  0  0
   21.7319   72.1603   -4.0386 O   0  0  0  0  0  0  0  0  0  0  0  0
   19.9472   73.8893   -3.2009 O   0  0  0  0  0  0  0  0  0  0  0  0
   19.2795   71.8382   -4.6888 O   0  0  0  0  0  0  0  0  0  0  0  0
   18.5703   69.5839   -4.8443 O   0  0  0  0  0  0  0  0  0  0  0  0
   18.4051   70.7913   -8.7918 O   0  0  0  0  0  0  0  0  0  0  0  0
   20.6495   71.5780   -7.0953 O   0  0  0  0  0  0  0  0  0  0  0  0
   15.9577   70.5085   -7.2488 O   0  0  0  0  0  0  0  0  0  0  0  0
   18.3226   70.9512   -7.3756 C   0  0  2  0  0  0  0  0  0  0  0  0
   19.6710   70.6072   -6.7424 C   0  0  2  0  0  0  0  0  0  0  0  0
   17.2346   70.0088   -6.8559 C   0  0  1  0  0  0  0  0  0  0  0  0
   19.5594   70.5437   -5.2184 C   0  0  1  0  0  0  0  0  0  0  0  0
   17.2697   69.9028   -5.3341 C   0  0  1  0  0  0  0  0  0  0  0  0
   19.0904   71.3806   -9.1445 H   0  0  0  0  0  0  0  0  0  0  0  0
   20.7254   71.6238   -8.0610 H   0  0  0  0  0  0  0  0  0  0  0  0
   15.9222   70.5809   -8.2154 H   0  0  0  0  0  0  0  0  0  0  0  0
   17.2329   67.7154   -4.4882 O   0  0  0  0  0  0  0  0  0  0  0  0
   15.2213   68.7375   -4.8169 O   0  0  0  0  0  0  0  0  0  0  0  0
   16.4423   68.7514   -4.8632 C   0  0  0  0  0  0  0  0  0  0  0  0
  1  4  1  0
  1 24  1  0
  1  2  1  1
  1  3  2  0
 25 28  1  0
 25 24  1  0
 25 26  1  6
 25 27  2  0
  6 11  1  0
  6 12  1  0
 29 36  1  0
 29 37  1  0
  9  7  1  1
  7 13  1  0
 10  8  1  1
  8 14  1  0
  4  5  1  0
 36 28  1  6
 33 30  1  6
 30 38  1  0
 34 31  1  1
 31 39  1  0
 35 32  1  1
 32 40  1  0
 41 43  1  0
 15 19  2  0
 42 43  2  0
 16 22  2  0
 12 17  1  6
 17 19  1  0
 17 20  1  0
 18 19  1  0
 18 22  1  0
 18 23  1  0
  9 10  1  0
  9 11  1  0
 10 12  1  0
 11  5  1  6
 33 34  1  0
 33 35  1  0
 34 36  1  0
 35 37  1  0
 37 43  1  6
 20 21  2  0
 21 22  1  0
M  CHG  3   2  -1  26  -1  41  -1
M  END
>  <COMPND>  (56) 
    udp_gluA.pdb 

>  <AUTHOR>  (56) 
    GENERATED BY OPEN BABEL 3.1.1

>  <MASTER>  (56) 
        0    0    0    0    0    0    0    0   56    0   56    0

>  <minimizedAffinity>  (56) 
-7.60605

>  <CNNscore>  (56) 
0.2990191281

>  <CNNaffinity>  (56) 
4.0532007217

>  <CNN_VS>  (56) 
1.2119845152

>  <CNNaffinity_variance>  (56) 
0.0419562012

$$$$
57
     RDKit          3D

 43 45  0  0  0  0  0  0  0  0999 V2000
   22.8029   72.8252   -4.1335 P   0  0  2  0  0  0  0  0  0  0  0  0
   24.2784   73.1721   -4.7002 O   0  0  0  0  0  0  0  0  0  0  0  0
   22.3390   73.6933   -3.0008 O   0  0  0  0  0  0  0  0  0  0  0  0
   22.8696   71.2390   -3.8213 O   0  0  0  0  0  0  0  0  0  0  0  0
   22.9338   70.8177   -2.4712 C   0  0  0  0  0  0  0  0  0  0  0  0
   21.4398   70.1438   -0.7129 O   0  0  0  0  0  0  0  0  0  0  0  0
   19.4567   69.5452   -2.8809 O   0  0  0  0  0  0  0  0  0  0  0  0
   18.6020   71.9582   -1.9414 O   0  0  0  0  0  0  0  0  0  0  0  0
   20.4214   70.5948   -2.8034 C   0  0  1  0  0  0  0  0  0  0  0  0
   19.9732   71.6464   -1.8107 C   0  0  2  0  0  0  0  0  0  0  0  0
   21.6701   70.0367   -2.1345 C   0  0  1  0  0  0  0  0  0  0  0  0
   20.2985   70.9849   -0.4823 C   0  0  2  0  0  0  0  0  0  0  0  0
   18.6497   69.8779   -3.3049 H   0  0  0  0  0  0  0  0  0  0  0  0
   18.4464   72.3773   -2.8029 H   0  0  0  0  0  0  0  0  0  0  0  0
   18.3858   72.4440    0.9974 O   0  0  0  0  0  0  0  0  0  0  0  0
   21.6495   74.6195    3.4180 O   0  0  0  0  0  0  0  0  0  0  0  0
   20.6208   71.9392    0.5407 N   0  0  0  0  0  0  0  0  0  0  0  0
   20.0132   73.5269    2.2009 N   0  0  0  0  0  0  0  0  0  0  0  0
   19.5846   72.6184    1.2241 C   0  0  0  0  0  0  0  0  0  0  0  0
   21.9495   72.1928    0.8588 C   0  0  0  0  0  0  0  0  0  0  0  0
   22.3424   73.0615    1.7924 C   0  0  0  0  0  0  0  0  0  0  0  0
   21.3224   73.8134    2.5523 C   0  0  0  0  0  0  0  0  0  0  0  0
   19.3098   74.0134    2.6887 H   0  0  0  0  0  0  0  0  0  0  0  0
   21.8794   72.8963   -5.4582 O   0  0  0  0  0  0  0  0  0  0  0  0
   20.4156   73.5393   -5.6985 P   0  0  2  0  0  0  0  0  0  0  0  0
   20.7480   74.9782   -6.3612 O   0  0  0  0  0  0  0  0  0  0  0  0
   19.5635   73.6088   -4.4644 O   0  0  0  0  0  0  0  0  0  0  0  0
   19.7808   72.6734   -6.9025 O   0  0  0  0  0  0  0  0  0  0  0  0
   18.9742   70.6641   -5.9426 O   0  0  0  0  0  0  0  0  0  0  0  0
   17.9110   70.1881   -9.9063 O   0  0  0  0  0  0  0  0  0  0  0  0
   20.5236   71.2850   -9.1953 O   0  0  0  0  0  0  0  0  0  0  0  0
   15.8964   70.8803   -7.9282 O   0  0  0  0  0  0  0  0  0  0  0  0
   18.1763   70.9147   -8.7064 C   0  0  2  0  0  0  0  0  0  0  0  0
   19.6239   70.6788   -8.2747 C   0  0  2  0  0  0  0  0  0  0  0  0
   17.2113   70.4161   -7.6284 C   0  0  1  0  0  0  0  0  0  0  0  0
   19.8787   71.2505   -6.8793 C   0  0  1  0  0  0  0  0  0  0  0  0
   17.6065   70.9289   -6.2466 C   0  0  1  0  0  0  0  0  0  0  0  0
   18.5126   70.4881  -10.6059 H   0  0  0  0  0  0  0  0  0  0  0  0
   20.3673   70.9271  -10.0829 H   0  0  0  0  0  0  0  0  0  0  0  0
   15.6328   70.5609   -8.8053 H   0  0  0  0  0  0  0  0  0  0  0  0
   17.0727   70.7701   -3.9682 O   0  0  0  0  0  0  0  0  0  0  0  0
   16.1891   69.1913   -5.3559 O   0  0  0  0  0  0  0  0  0  0  0  0
   16.8750   70.1864   -5.1761 C   0  0  0  0  0  0  0  0  0  0  0  0
  1  4  1  0
  1 24  1  0
  1  2  1  6
  1  3  2  0
 25 28  1  0
 25 24  1  0
 25 26  1  6
 25 27  2  0
  6 11  1  0
  6 12  1  0
 29 36  1  0
 29 37  1  0
  9  7  1  1
  7 13  1  0
 10  8  1  1
  8 14  1  0
  4  5  1  0
 36 28  1  6
 33 30  1  6
 30 38  1  0
 34 31  1  6
 31 39  1  0
 35 32  1  6
 32 40  1  0
 41 43  1  0
 15 19  2  0
 42 43  2  0
 16 22  2  0
 12 17  1  1
 17 19  1  0
 17 20  1  0
 18 19  1  0
 18 22  1  0
 18 23  1  0
  9 10  1  0
  9 11  1  0
 10 12  1  0
 11  5  1  6
 33 34  1  0
 33 35  1  0
 34 36  1  0
 35 37  1  0
 37 43  1  1
 20 21  2  0
 21 22  1  0
M  CHG  3   2  -1  26  -1  41  -1
M  END
>  <COMPND>  (57) 
    udp_gluA.pdb 

>  <AUTHOR>  (57) 
    GENERATED BY OPEN BABEL 3.1.1

>  <MASTER>  (57) 
        0    0    0    0    0    0    0    0   56    0   56    0

>  <minimizedAffinity>  (57) 
-8.11700

>  <CNNscore>  (57) 
0.2987812757

>  <CNNaffinity>  (57) 
3.9535057545

>  <CNN_VS>  (57) 
1.1812335253

>  <CNNaffinity_variance>  (57) 
0.3704946935

$$$$
58
     RDKit          3D

 43 45  0  0  0  0  0  0  0  0999 V2000
   22.3166   71.1591   -3.1574 P   0  0  2  0  0  0  0  0  0  0  0  0
   23.6459   71.9144   -3.6877 O   0  0  0  0  0  0  0  0  0  0  0  0
   22.4600   69.6764   -2.9761 O   0  0  0  0  0  0  0  0  0  0  0  0
   21.1633   71.6324   -4.1889 O   0  0  0  0  0  0  0  0  0  0  0  0
   20.0377   72.3206   -3.6751 C   0  0  0  0  0  0  0  0  0  0  0  0
   20.3804   73.7357   -5.5877 O   0  0  0  0  0  0  0  0  0  0  0  0
   18.9527   75.8663   -4.0341 O   0  0  0  0  0  0  0  0  0  0  0  0
   17.0156   74.9655   -5.7287 O   0  0  0  0  0  0  0  0  0  0  0  0
   18.7155   74.4588   -4.0657 C   0  0  1  0  0  0  0  0  0  0  0  0
   18.0452   74.0694   -5.3662 C   0  0  2  0  0  0  0  0  0  0  0  0
   20.0624   73.7578   -4.1792 C   0  0  1  0  0  0  0  0  0  0  0  0
   19.2103   74.0922   -6.3408 C   0  0  2  0  0  0  0  0  0  0  0  0
   18.1065   76.3356   -3.9618 H   0  0  0  0  0  0  0  0  0  0  0  0
   16.2976   74.9134   -5.0778 H   0  0  0  0  0  0  0  0  0  0  0  0
   17.8211   74.6452   -8.7368 O   0  0  0  0  0  0  0  0  0  0  0  0
   18.6342   70.4231  -10.3972 O   0  0  0  0  0  0  0  0  0  0  0  0
   19.0438   73.1556   -7.4160 N   0  0  0  0  0  0  0  0  0  0  0  0
   18.2266   72.5415   -9.5610 N   0  0  0  0  0  0  0  0  0  0  0  0
   18.3282   73.5334   -8.5767 C   0  0  0  0  0  0  0  0  0  0  0  0
   19.5870   71.8805   -7.3155 C   0  0  0  0  0  0  0  0  0  0  0  0
   19.4819   70.9459   -8.2622 C   0  0  0  0  0  0  0  0  0  0  0  0
   18.7491   71.2595   -9.5064 C   0  0  0  0  0  0  0  0  0  0  0  0
   17.7311   72.7805  -10.3776 H   0  0  0  0  0  0  0  0  0  0  0  0
   21.9522   71.9704   -1.8077 O   0  0  0  0  0  0  0  0  0  0  0  0
   21.5544   71.4484   -0.3302 P   0  0  2  0  0  0  0  0  0  0  0  0
   22.9279   70.7831    0.2093 O   0  0  0  0  0  0  0  0  0  0  0  0
   20.3684   70.5284   -0.3007 O   0  0  0  0  0  0  0  0  0  0  0  0
   21.3813   72.7920    0.5457 O   0  0  0  0  0  0  0  0  0  0  0  0
   22.9523   74.5588    0.4044 O   0  0  0  0  0  0  0  0  0  0  0  0
   21.0903   75.3752    4.0008 O   0  0  0  0  0  0  0  0  0  0  0  0
   21.8013   72.6321    3.2905 O   0  0  0  0  0  0  0  0  0  0  0  0
   20.4620   76.9526    1.6412 O   0  0  0  0  0  0  0  0  0  0  0  0
   21.1813   74.8915    2.6607 C   0  0  2  0  0  0  0  0  0  0  0  0
   22.2373   73.7885    2.5854 C   0  0  2  0  0  0  0  0  0  0  0  0
   21.5723   76.0652    1.7599 C   0  0  1  0  0  0  0  0  0  0  0  0
   22.5268   73.4066    1.1331 C   0  0  1  0  0  0  0  0  0  0  0  0
   21.9676   75.5893    0.3650 C   0  0  1  0  0  0  0  0  0  0  0  0
   20.8429   74.6465    4.5917 H   0  0  0  0  0  0  0  0  0  0  0  0
   21.6156   72.8672    4.2128 H   0  0  0  0  0  0  0  0  0  0  0  0
   20.2003   77.2628    2.5222 H   0  0  0  0  0  0  0  0  0  0  0  0
   23.2988   76.1772   -1.4745 O   0  0  0  0  0  0  0  0  0  0  0  0
   22.6367   77.8626   -0.0887 O   0  0  0  0  0  0  0  0  0  0  0  0
   22.6529   76.6793   -0.3930 C   0  0  0  0  0  0  0  0  0  0  0  0
  1  4  1  0
  1 24  1  0
  1  2  1  6
  1  3  2  0
 25 28  1  0
 25 24  1  0
 25 26  1  1
 25 27  2  0
  6 11  1  0
  6 12  1  0
 29 36  1  0
 29 37  1  0
  9  7  1  6
  7 13  1  0
 10  8  1  6
  8 14  1  0
  4  5  1  0
 36 28  1  6
 33 30  1  1
 30 38  1  0
 34 31  1  1
 31 39  1  0
 35 32  1  6
 32 40  1  0
 41 43  1  0
 15 19  2  0
 42 43  2  0
 16 22  2  0
 12 17  1  6
 17 19  1  0
 17 20  1  0
 18 19  1  0
 18 22  1  0
 18 23  1  0
  9 10  1  0
  9 11  1  0
 10 12  1  0
 11  5  1  6
 33 34  1  0
 33 35  1  0
 34 36  1  0
 35 37  1  0
 37 43  1  6
 20 21  2  0
 21 22  1  0
M  CHG  3   2  -1  26  -1  41  -1
M  END
>  <COMPND>  (58) 
    udp_gluA.pdb 

>  <AUTHOR>  (58) 
    GENERATED BY OPEN BABEL 3.1.1

>  <MASTER>  (58) 
        0    0    0    0    0    0    0    0   56    0   56    0

>  <minimizedAffinity>  (58) 
-7.03750

>  <CNNscore>  (58) 
0.2956034839

>  <CNNaffinity>  (58) 
4.2659239769

>  <CNN_VS>  (58) 
1.2610219717

>  <CNNaffinity_variance>  (58) 
0.0517499447

$$$$
59
     RDKit          3D

 43 45  0  0  0  0  0  0  0  0999 V2000
   22.6667   74.1321   -4.3811 P   0  0  2  0  0  0  0  0  0  0  0  0
   23.8352   73.1004   -4.8160 O   0  0  0  0  0  0  0  0  0  0  0  0
   22.9415   75.5722   -4.7013 O   0  0  0  0  0  0  0  0  0  0  0  0
   22.4131   73.7958   -2.8188 O   0  0  0  0  0  0  0  0  0  0  0  0
   21.1263   73.3592   -2.4215 C   0  0  0  0  0  0  0  0  0  0  0  0
   22.3020   72.2587   -0.6370 O   0  0  0  0  0  0  0  0  0  0  0  0
   20.0326   70.2991   -0.6000 O   0  0  0  0  0  0  0  0  0  0  0  0
   19.4528   71.9223    1.5131 O   0  0  0  0  0  0  0  0  0  0  0  0
   20.0081   71.7056   -0.8442 C   0  0  1  0  0  0  0  0  0  0  0  0
   20.2070   72.4658    0.4499 C   0  0  2  0  0  0  0  0  0  0  0  0
   21.2646   72.0690   -1.6235 C   0  0  1  0  0  0  0  0  0  0  0  0
   21.7046   72.3323    0.6672 C   0  0  2  0  0  0  0  0  0  0  0  0
   19.2394   70.0430   -0.1031 H   0  0  0  0  0  0  0  0  0  0  0  0
   18.5065   72.0321    1.3275 H   0  0  0  0  0  0  0  0  0  0  0  0
   21.9089   72.5065    3.4787 O   0  0  0  0  0  0  0  0  0  0  0  0
   23.8462   76.6831    3.2617 O   0  0  0  0  0  0  0  0  0  0  0  0
   22.2583   73.4538    1.3718 N   0  0  0  0  0  0  0  0  0  0  0  0
   22.8727   74.5869    3.3680 N   0  0  0  0  0  0  0  0  0  0  0  0
   22.3142   73.4415    2.7856 C   0  0  0  0  0  0  0  0  0  0  0  0
   22.7397   74.5485    0.6641 C   0  0  0  0  0  0  0  0  0  0  0  0
   23.2693   75.6331    1.2332 C   0  0  0  0  0  0  0  0  0  0  0  0
   23.3641   75.7006    2.7063 C   0  0  0  0  0  0  0  0  0  0  0  0
   22.9205   74.6024    4.3512 H   0  0  0  0  0  0  0  0  0  0  0  0
   21.3557   73.5203   -5.1019 O   0  0  0  0  0  0  0  0  0  0  0  0
   20.0457   74.2439   -5.7136 P   0  0  2  0  0  0  0  0  0  0  0  0
   20.5928   74.8973   -7.0899 O   0  0  0  0  0  0  0  0  0  0  0  0
   19.3911   75.2223   -4.7819 O   0  0  0  0  0  0  0  0  0  0  0  0
   19.0931   73.0318   -6.1889 O   0  0  0  0  0  0  0  0  0  0  0  0
   19.3355   70.7722   -5.5224 O   0  0  0  0  0  0  0  0  0  0  0  0
   17.3518   70.3778   -9.1247 O   0  0  0  0  0  0  0  0  0  0  0  0
   19.5307   72.3024   -8.8370 O   0  0  0  0  0  0  0  0  0  0  0  0
   15.9173   70.0180   -6.6220 O   0  0  0  0  0  0  0  0  0  0  0  0
   17.7066   71.0097   -7.8948 C   0  0  2  0  0  0  0  0  0  0  0  0
   19.2080   71.2981   -7.8821 C   0  0  2  0  0  0  0  0  0  0  0  0
   17.3371   70.0613   -6.7520 C   0  0  1  0  0  0  0  0  0  0  0  0
   19.6643   71.7619   -6.4980 C   0  0  1  0  0  0  0  0  0  0  0  0
   17.9343   70.5263   -5.4270 C   0  0  1  0  0  0  0  0  0  0  0  0
   17.5775   70.9622   -9.8656 H   0  0  0  0  0  0  0  0  0  0  0  0
   19.2436   72.0149   -9.7175 H   0  0  0  0  0  0  0  0  0  0  0  0
   15.5248   69.7237   -7.4587 H   0  0  0  0  0  0  0  0  0  0  0  0
   17.2500   68.3428   -4.9116 O   0  0  0  0  0  0  0  0  0  0  0  0
   18.2709   69.5312   -3.2549 O   0  0  0  0  0  0  0  0  0  0  0  0
   17.8527   69.4445   -4.3997 C   0  0  0  0  0  0  0  0  0  0  0  0
  1  4  1  0
  1 24  1  0
  1  2  1  6
  1  3  2  0
 25 28  1  0
 25 24  1  0
 25 26  1  6
 25 27  2  0
  6 11  1  0
  6 12  1  0
 29 36  1  0
 29 37  1  0
  9  7  1  1
  7 13  1  0
 10  8  1  1
  8 14  1  0
  4  5  1  0
 36 28  1  1
 33 30  1  6
 30 38  1  0
 34 31  1  6
 31 39  1  0
 35 32  1  1
 32 40  1  0
 41 43  1  0
 15 19  2  0
 42 43  2  0
 16 22  2  0
 12 17  1  6
 17 19  1  0
 17 20  1  0
 18 19  1  0
 18 22  1  0
 18 23  1  0
  9 10  1  0
  9 11  1  0
 10 12  1  0
 11  5  1  1
 33 34  1  0
 33 35  1  0
 34 36  1  0
 35 37  1  0
 37 43  1  1
 20 21  2  0
 21 22  1  0
M  CHG  3   2  -1  26  -1  41  -1
M  END
>  <COMPND>  (59) 
    udp_gluA.pdb 

>  <AUTHOR>  (59) 
    GENERATED BY OPEN BABEL 3.1.1

>  <MASTER>  (59) 
        0    0    0    0    0    0    0    0   56    0   56    0

>  <minimizedAffinity>  (59) 
-7.73731

>  <CNNscore>  (59) 
0.2950262129

>  <CNNaffinity>  (59) 
4.0034890175

>  <CNN_VS>  (59) 
1.1811342239

>  <CNNaffinity_variance>  (59) 
0.1466583312

$$$$
60
     RDKit          3D

 43 45  0  0  0  0  0  0  0  0999 V2000
   23.3321   70.7949   -2.3762 P   0  0  2  0  0  0  0  0  0  0  0  0
   22.3776   69.6359   -2.9798 O   0  0  0  0  0  0  0  0  0  0  0  0
   24.5364   70.2995   -1.6305 O   0  0  0  0  0  0  0  0  0  0  0  0
   22.3190   71.7318   -1.5314 O   0  0  0  0  0  0  0  0  0  0  0  0
   22.8021   72.3678   -0.3624 C   0  0  0  0  0  0  0  0  0  0  0  0
   22.2850   72.8465    1.9357 O   0  0  0  0  0  0  0  0  0  0  0  0
   19.5201   71.8594    1.3254 O   0  0  0  0  0  0  0  0  0  0  0  0
   19.2138   74.5682    1.2590 O   0  0  0  0  0  0  0  0  0  0  0  0
   20.4190   72.5983    0.4980 C   0  0  1  0  0  0  0  0  0  0  0  0
   20.4879   74.0398    0.9558 C   0  0  2  0  0  0  0  0  0  0  0  0
   21.8314   72.1058    0.7820 C   0  0  1  0  0  0  0  0  0  0  0  0
   21.3855   73.9401    2.1773 C   0  0  2  0  0  0  0  0  0  0  0  0
   18.6110   72.1565    1.1616 H   0  0  0  0  0  0  0  0  0  0  0  0
   18.6807   74.6116    0.4491 H   0  0  0  0  0  0  0  0  0  0  0  0
   20.6404   76.0129    3.9451 O   0  0  0  0  0  0  0  0  0  0  0  0
   24.3992   78.4790    2.9282 O   0  0  0  0  0  0  0  0  0  0  0  0
   22.1510   75.1351    2.3939 N   0  0  0  0  0  0  0  0  0  0  0  0
   22.5127   77.2397    3.4362 N   0  0  0  0  0  0  0  0  0  0  0  0
   21.6879   76.1149    3.3037 C   0  0  0  0  0  0  0  0  0  0  0  0
   23.3459   75.3267    1.7110 C   0  0  0  0  0  0  0  0  0  0  0  0
   24.1214   76.4040    1.8478 C   0  0  0  0  0  0  0  0  0  0  0  0
   23.7090   77.4753    2.7783 C   0  0  0  0  0  0  0  0  0  0  0  0
   22.2100   77.9364    4.0625 H   0  0  0  0  0  0  0  0  0  0  0  0
   23.6683   71.6999   -3.6727 O   0  0  0  0  0  0  0  0  0  0  0  0
   22.9063   72.9805   -4.2997 P   0  0  2  0  0  0  0  0  0  0  0  0
   23.2651   72.8893   -5.8756 O   0  0  0  0  0  0  0  0  0  0  0  0
   23.2692   74.2882   -3.6576 O   0  0  0  0  0  0  0  0  0  0  0  0
   21.3395   72.6058   -4.2165 O   0  0  0  0  0  0  0  0  0  0  0  0
   20.1183   70.6537   -4.7708 O   0  0  0  0  0  0  0  0  0  0  0  0
   17.4897   73.6368   -5.8932 O   0  0  0  0  0  0  0  0  0  0  0  0
   20.3415   73.8783   -6.4794 O   0  0  0  0  0  0  0  0  0  0  0  0
   17.0335   72.1345   -3.4466 O   0  0  0  0  0  0  0  0  0  0  0  0
   18.5228   73.0362   -5.1121 C   0  0  2  0  0  0  0  0  0  0  0  0
   19.7100   72.6919   -6.0118 C   0  0  2  0  0  0  0  0  0  0  0  0
   17.9547   71.7676   -4.4719 C   0  0  1  0  0  0  0  0  0  0  0  0
   20.7374   71.8436   -5.2611 C   0  0  1  0  0  0  0  0  0  0  0  0
   19.0578   70.9135   -3.8538 C   0  0  1  0  0  0  0  0  0  0  0  0
   17.8277   74.4451   -6.3100 H   0  0  0  0  0  0  0  0  0  0  0  0
   19.6952   74.4215   -6.9565 H   0  0  0  0  0  0  0  0  0  0  0  0
   16.3263   72.6787   -3.8268 H   0  0  0  0  0  0  0  0  0  0  0  0
   19.3730   68.5971   -4.0441 O   0  0  0  0  0  0  0  0  0  0  0  0
   17.5388   69.3058   -2.8898 O   0  0  0  0  0  0  0  0  0  0  0  0
   18.5513   69.5456   -3.5303 C   0  0  0  0  0  0  0  0  0  0  0  0
  1  4  1  0
  1 24  1  0
  1  2  1  6
  1  3  2  0
 25 28  1  0
 25 24  1  0
 25 26  1  6
 25 27  2  0
  6 11  1  0
  6 12  1  0
 29 36  1  0
 29 37  1  0
  9  7  1  1
  7 13  1  0
 10  8  1  1
  8 14  1  0
  4  5  1  0
 36 28  1  1
 33 30  1  6
 30 38  1  0
 34 31  1  1
 31 39  1  0
 35 32  1  1
 32 40  1  0
 41 43  1  0
 15 19  2  0
 42 43  2  0
 16 22  2  0
 12 17  1  6
 17 19  1  0
 17 20  1  0
 18 19  1  0
 18 22  1  0
 18 23  1  0
  9 10  1  0
  9 11  1  0
 10 12  1  0
 11  5  1  6
 33 34  1  0
 33 35  1  0
 34 36  1  0
 35 37  1  0
 37 43  1  6
 20 21  2  0
 21 22  1  0
M  CHG  3   2  -1  26  -1  41  -1
M  END
>  <COMPND>  (60) 
    udp_gluA.pdb 

>  <AUTHOR>  (60) 
    GENERATED BY OPEN BABEL 3.1.1

>  <MASTER>  (60) 
        0    0    0    0    0    0    0    0   56    0   56    0

>  <minimizedAffinity>  (60) 
-6.63815

>  <CNNscore>  (60) 
0.2936069667

>  <CNNaffinity>  (60) 
3.9697442055

>  <CNN_VS>  (60) 
1.1655445099

>  <CNNaffinity_variance>  (60) 
0.1966417879

$$$$
61
     RDKit          3D

 43 45  0  0  0  0  0  0  0  0999 V2000
   22.5843   71.0960   -2.9271 P   0  0  2  0  0  0  0  0  0  0  0  0
   23.7067   71.9924   -3.6725 O   0  0  0  0  0  0  0  0  0  0  0  0
   22.9948   69.6830   -2.6329 O   0  0  0  0  0  0  0  0  0  0  0  0
   21.2705   71.2672   -3.8559 O   0  0  0  0  0  0  0  0  0  0  0  0
   20.1813   70.3852   -3.6555 C   0  0  0  0  0  0  0  0  0  0  0  0
   18.7559   71.8447   -4.9266 O   0  0  0  0  0  0  0  0  0  0  0  0
   16.6009   71.1457   -2.9622 O   0  0  0  0  0  0  0  0  0  0  0  0
   15.9874   69.5736   -5.1042 O   0  0  0  0  0  0  0  0  0  0  0  0
   17.6433   70.3251   -3.4900 C   0  0  1  0  0  0  0  0  0  0  0  0
   17.3375   69.9470   -4.9238 C   0  0  2  0  0  0  0  0  0  0  0  0
   18.8873   71.1889   -3.6468 C   0  0  1  0  0  0  0  0  0  0  0  0
   17.6965   71.2210   -5.6694 C   0  0  2  0  0  0  0  0  0  0  0  0
   15.7955   70.6156   -2.8532 H   0  0  0  0  0  0  0  0  0  0  0  0
   15.8089   68.7574   -4.6103 H   0  0  0  0  0  0  0  0  0  0  0  0
   15.9925   70.7786   -7.8779 O   0  0  0  0  0  0  0  0  0  0  0  0
   19.5555   70.2433  -10.7523 O   0  0  0  0  0  0  0  0  0  0  0  0
   18.1522   70.9636   -7.0062 N   0  0  0  0  0  0  0  0  0  0  0  0
   17.7687   70.5114   -9.3072 N   0  0  0  0  0  0  0  0  0  0  0  0
   17.2134   70.7546   -8.0440 C   0  0  0  0  0  0  0  0  0  0  0  0
   19.5142   70.9220   -7.2787 C   0  0  0  0  0  0  0  0  0  0  0  0
   20.0283   70.6892   -8.4879 C   0  0  0  0  0  0  0  0  0  0  0  0
   19.1157   70.4597   -9.6271 C   0  0  0  0  0  0  0  0  0  0  0  0
   17.1348   70.3608  -10.0453 H   0  0  0  0  0  0  0  0  0  0  0  0
   22.2238   71.9782   -1.6215 O   0  0  0  0  0  0  0  0  0  0  0  0
   21.5539   71.5610   -0.2105 P   0  0  2  0  0  0  0  0  0  0  0  0
   22.8344   71.2387    0.7259 O   0  0  0  0  0  0  0  0  0  0  0  0
   20.5611   70.4390   -0.3079 O   0  0  0  0  0  0  0  0  0  0  0  0
   20.9535   72.9368    0.3803 O   0  0  0  0  0  0  0  0  0  0  0  0
   21.7935   75.1454    0.2190 O   0  0  0  0  0  0  0  0  0  0  0  0
   19.9216   75.2247    3.9011 O   0  0  0  0  0  0  0  0  0  0  0  0
   21.5219   72.9146    3.1029 O   0  0  0  0  0  0  0  0  0  0  0  0
   18.6757   76.4967    1.6031 O   0  0  0  0  0  0  0  0  0  0  0  0
   20.1187   74.8145    2.5480 C   0  0  2  0  0  0  0  0  0  0  0  0
   21.4913   74.1558    2.4078 C   0  0  2  0  0  0  0  0  0  0  0  0
   20.0316   76.0574    1.6595 C   0  0  1  0  0  0  0  0  0  0  0  0
   21.8333   73.9117    0.9373 C   0  0  1  0  0  0  0  0  0  0  0  0
   20.5082   75.7623    0.2403 C   0  0  1  0  0  0  0  0  0  0  0  0
   19.9728   74.4511    4.4844 H   0  0  0  0  0  0  0  0  0  0  0  0
   21.3055   73.0620    4.0366 H   0  0  0  0  0  0  0  0  0  0  0  0
   18.3601   76.6878    2.5002 H   0  0  0  0  0  0  0  0  0  0  0  0
   19.5739   77.4660   -1.0736 O   0  0  0  0  0  0  0  0  0  0  0  0
   21.8058   77.6022   -0.6270 O   0  0  0  0  0  0  0  0  0  0  0  0
   20.7318   77.0297   -0.5185 C   0  0  0  0  0  0  0  0  0  0  0  0
  1  4  1  0
  1 24  1  0
  1  2  1  6
  1  3  2  0
 25 28  1  0
 25 24  1  0
 25 26  1  1
 25 27  2  0
  6 11  1  0
  6 12  1  0
 29 36  1  0
 29 37  1  0
  9  7  1  6
  7 13  1  0
 10  8  1  1
  8 14  1  0
  4  5  1  0
 36 28  1  6
 33 30  1  1
 30 38  1  0
 34 31  1  1
 31 39  1  0
 35 32  1  6
 32 40  1  0
 41 43  1  0
 15 19  2  0
 42 43  2  0
 16 22  2  0
 12 17  1  6
 17 19  1  0
 17 20  1  0
 18 19  1  0
 18 22  1  0
 18 23  1  0
  9 10  1  0
  9 11  1  0
 10 12  1  0
 11  5  1  6
 33 34  1  0
 33 35  1  0
 34 36  1  0
 35 37  1  0
 37 43  1  6
 20 21  2  0
 21 22  1  0
M  CHG  3   2  -1  26  -1  41  -1
M  END
>  <COMPND>  (61) 
    udp_gluA.pdb 

>  <AUTHOR>  (61) 
    GENERATED BY OPEN BABEL 3.1.1

>  <MASTER>  (61) 
        0    0    0    0    0    0    0    0   56    0   56    0

>  <minimizedAffinity>  (61) 
-7.50047

>  <CNNscore>  (61) 
0.6892732382

>  <CNNaffinity>  (61) 
4.6673188210

>  <CNN_VS>  (61) 
3.2170579433

>  <CNNaffinity_variance>  (61) 
0.1434772909

$$$$
62
     RDKit          3D

 43 45  0  0  0  0  0  0  0  0999 V2000
   21.0548   70.3580   -1.2075 P   0  0  2  0  0  0  0  0  0  0  0  0
   22.4270   69.7749   -1.8367 O   0  0  0  0  0  0  0  0  0  0  0  0
   20.0210   69.3229   -0.8733 O   0  0  0  0  0  0  0  0  0  0  0  0
   20.5953   71.4945   -2.2636 O   0  0  0  0  0  0  0  0  0  0  0  0
   20.0438   71.0840   -3.5013 C   0  0  0  0  0  0  0  0  0  0  0  0
   18.3293   72.0503   -4.8812 O   0  0  0  0  0  0  0  0  0  0  0  0
   16.3683   70.9124   -2.9187 O   0  0  0  0  0  0  0  0  0  0  0  0
   16.2574   69.1258   -4.9759 O   0  0  0  0  0  0  0  0  0  0  0  0
   17.6056   70.3682   -3.3787 C   0  0  1  0  0  0  0  0  0  0  0  0
   17.4564   69.8494   -4.7932 C   0  0  2  0  0  0  0  0  0  0  0  0
   18.5853   71.5190   -3.5631 C   0  0  1  0  0  0  0  0  0  0  0  0
   17.4945   71.1327   -5.6054 C   0  0  2  0  0  0  0  0  0  0  0  0
   15.7261   70.1958   -2.7936 H   0  0  0  0  0  0  0  0  0  0  0  0
   16.2822   68.3181   -4.4384 H   0  0  0  0  0  0  0  0  0  0  0  0
   15.9539   70.7795   -7.9460 O   0  0  0  0  0  0  0  0  0  0  0  0
   19.7147   70.3834  -10.5811 O   0  0  0  0  0  0  0  0  0  0  0  0
   18.0453   70.9353   -6.9163 N   0  0  0  0  0  0  0  0  0  0  0  0
   17.8284   70.5816   -9.2560 N   0  0  0  0  0  0  0  0  0  0  0  0
   17.1837   70.7676   -8.0261 C   0  0  0  0  0  0  0  0  0  0  0  0
   19.4234   70.9109   -7.0932 C   0  0  0  0  0  0  0  0  0  0  0  0
   20.0233   70.7327   -8.2718 C   0  0  0  0  0  0  0  0  0  0  0  0
   19.1950   70.5491   -9.4816 C   0  0  0  0  0  0  0  0  0  0  0  0
   17.2493   70.4606  -10.0430 H   0  0  0  0  0  0  0  0  0  0  0  0
   21.5736   71.2236    0.0551 O   0  0  0  0  0  0  0  0  0  0  0  0
   20.8550   72.3958    0.9055 P   0  0  2  0  0  0  0  0  0  0  0  0
   21.6756   72.3966    2.3009 O   0  0  0  0  0  0  0  0  0  0  0  0
   19.3717   72.2234    1.0605 O   0  0  0  0  0  0  0  0  0  0  0  0
   21.2971   73.7632    0.1724 O   0  0  0  0  0  0  0  0  0  0  0  0
   22.7308   73.9831   -1.6998 O   0  0  0  0  0  0  0  0  0  0  0  0
   23.2995   77.5950    0.2234 O   0  0  0  0  0  0  0  0  0  0  0  0
   23.1469   75.1107    1.7530 O   0  0  0  0  0  0  0  0  0  0  0  0
   21.6694   77.4623   -2.1799 O   0  0  0  0  0  0  0  0  0  0  0  0
   22.5696   76.4407   -0.1922 C   0  0  2  0  0  0  0  0  0  0  0  0
   23.2582   75.1821    0.3363 C   0  0  2  0  0  0  0  0  0  0  0  0
   22.5374   76.4272   -1.7222 C   0  0  1  0  0  0  0  0  0  0  0  0
   22.6418   73.9233   -0.2757 C   0  0  1  0  0  0  0  0  0  0  0  0
   22.0282   75.0917   -2.2569 C   0  0  1  0  0  0  0  0  0  0  0  0
   23.3332   77.6248    1.1926 H   0  0  0  0  0  0  0  0  0  0  0  0
   23.5358   75.9065    2.1479 H   0  0  0  0  0  0  0  0  0  0  0  0
   21.9823   78.3177   -1.8464 H   0  0  0  0  0  0  0  0  0  0  0  0
   22.4478   73.6622   -4.0685 O   0  0  0  0  0  0  0  0  0  0  0  0
   22.3946   75.9004   -4.5003 O   0  0  0  0  0  0  0  0  0  0  0  0
   22.3068   74.9649   -3.7193 C   0  0  0  0  0  0  0  0  0  0  0  0
  1  4  1  0
  1 24  1  0
  1  2  1  6
  1  3  2  0
 25 28  1  0
 25 24  1  0
 25 26  1  1
 25 27  2  0
  6 11  1  0
  6 12  1  0
 29 36  1  0
 29 37  1  0
  9  7  1  6
  7 13  1  0
 10  8  1  1
  8 14  1  0
  4  5  1  0
 36 28  1  6
 33 30  1  6
 30 38  1  0
 34 31  1  1
 31 39  1  0
 35 32  1  1
 32 40  1  0
 41 43  1  0
 15 19  2  0
 42 43  2  0
 16 22  2  0
 12 17  1  6
 17 19  1  0
 17 20  1  0
 18 19  1  0
 18 22  1  0
 18 23  1  0
  9 10  1  0
  9 11  1  0
 10 12  1  0
 11  5  1  6
 33 34  1  0
 33 35  1  0
 34 36  1  0
 35 37  1  0
 37 43  1  6
 20 21  2  0
 21 22  1  0
M  CHG  3   2  -1  26  -1  41  -1
M  END
>  <COMPND>  (62) 
    udp_gluA.pdb 

>  <AUTHOR>  (62) 
    GENERATED BY OPEN BABEL 3.1.1

>  <MASTER>  (62) 
        0    0    0    0    0    0    0    0   56    0   56    0

>  <minimizedAffinity>  (62) 
-7.08952

>  <CNNscore>  (62) 
0.6718892455

>  <CNNaffinity>  (62) 
4.6857933998

>  <CNN_VS>  (62) 
3.1483342648

>  <CNNaffinity_variance>  (62) 
0.0605421662

$$$$
63
     RDKit          3D

 43 45  0  0  0  0  0  0  0  0999 V2000
   21.8051   73.5843   -5.8707 P   0  0  2  0  0  0  0  0  0  0  0  0
   21.3797   74.9206   -6.6783 O   0  0  0  0  0  0  0  0  0  0  0  0
   23.2751   73.2826   -5.8749 O   0  0  0  0  0  0  0  0  0  0  0  0
   20.8502   72.4349   -6.4911 O   0  0  0  0  0  0  0  0  0  0  0  0
   19.8264   72.8191   -7.3904 C   0  0  0  0  0  0  0  0  0  0  0  0
   19.5940   70.4301   -7.2632 O   0  0  0  0  0  0  0  0  0  0  0  0
   17.4299   70.7176   -9.3188 O   0  0  0  0  0  0  0  0  0  0  0  0
   16.0182   70.4331   -7.0032 O   0  0  0  0  0  0  0  0  0  0  0  0
   17.7690   71.5847   -8.2364 C   0  0  1  0  0  0  0  0  0  0  0  0
   17.3158   70.9845   -6.9223 C   0  0  2  0  0  0  0  0  0  0  0  0
   19.2840   71.5765   -8.0847 C   0  0  1  0  0  0  0  0  0  0  0  0
   18.3833   69.9332   -6.6710 C   0  0  2  0  0  0  0  0  0  0  0  0
   16.4666   70.7064   -9.4350 H   0  0  0  0  0  0  0  0  0  0  0  0
   15.3751   71.1420   -7.1637 H   0  0  0  0  0  0  0  0  0  0  0  0
   16.5475   68.6501   -4.9506 O   0  0  0  0  0  0  0  0  0  0  0  0
   19.3503   69.1074   -1.3203 O   0  0  0  0  0  0  0  0  0  0  0  0
   18.6078   69.7038   -5.2718 N   0  0  0  0  0  0  0  0  0  0  0  0
   17.9448   68.8800   -3.1439 N   0  0  0  0  0  0  0  0  0  0  0  0
   17.6211   69.0502   -4.4964 C   0  0  0  0  0  0  0  0  0  0  0  0
   19.7943   70.1224   -4.6820 C   0  0  0  0  0  0  0  0  0  0  0  0
   20.0887   69.9530   -3.3915 C   0  0  0  0  0  0  0  0  0  0  0  0
   19.1110   69.2797   -2.5116 C   0  0  0  0  0  0  0  0  0  0  0  0
   17.2724   68.4293   -2.5835 H   0  0  0  0  0  0  0  0  0  0  0  0
   21.1723   73.8299   -4.4038 O   0  0  0  0  0  0  0  0  0  0  0  0
   21.6014   74.8423   -3.2186 P   0  0  2  0  0  0  0  0  0  0  0  0
   20.2418   75.6724   -2.9309 O   0  0  0  0  0  0  0  0  0  0  0  0
   22.7920   75.6982   -3.5408 O   0  0  0  0  0  0  0  0  0  0  0  0
   21.7853   73.9002   -1.9221 O   0  0  0  0  0  0  0  0  0  0  0  0
   22.1954   71.5796   -1.6861 O   0  0  0  0  0  0  0  0  0  0  0  0
   19.7112   72.3255    1.5295 O   0  0  0  0  0  0  0  0  0  0  0  0
   19.1621   73.5273   -1.0760 O   0  0  0  0  0  0  0  0  0  0  0  0
   22.5641   71.9527    1.9453 O   0  0  0  0  0  0  0  0  0  0  0  0
   20.7132   72.6289    0.5590 C   0  0  2  0  0  0  0  0  0  0  0  0
   20.1211   72.5017   -0.8448 C   0  0  2  0  0  0  0  0  0  0  0  0
   21.8648   71.6380    0.7426 C   0  0  1  0  0  0  0  0  0  0  0  0
   21.2145   72.5930   -1.9101 C   0  0  1  0  0  0  0  0  0  0  0  0
   22.8467   71.7027   -0.4236 C   0  0  1  0  0  0  0  0  0  0  0  0
   18.9689   72.9427    1.4320 H   0  0  0  0  0  0  0  0  0  0  0  0
   18.4655   73.4755   -0.4035 H   0  0  0  0  0  0  0  0  0  0  0  0
   21.9503   71.9152    2.6955 H   0  0  0  0  0  0  0  0  0  0  0  0
   24.0876   70.1500   -1.6691 O   0  0  0  0  0  0  0  0  0  0  0  0
   24.1863   69.9781    0.6024 O   0  0  0  0  0  0  0  0  0  0  0  0
   23.7693   70.5275   -0.4061 C   0  0  0  0  0  0  0  0  0  0  0  0
  1  4  1  0
  1 24  1  0
  1  2  1  6
  1  3  2  0
 25 28  1  0
 25 24  1  0
 25 26  1  1
 25 27  2  0
  6 11  1  0
  6 12  1  0
 29 36  1  0
 29 37  1  0
  9  7  1  6
  7 13  1  0
 10  8  1  6
  8 14  1  0
  4  5  1  0
 36 28  1  1
 33 30  1  1
 30 38  1  0
 34 31  1  6
 31 39  1  0
 35 32  1  1
 32 40  1  0
 41 43  1  0
 15 19  2  0
 42 43  2  0
 16 22  2  0
 12 17  1  1
 17 19  1  0
 17 20  1  0
 18 19  1  0
 18 22  1  0
 18 23  1  0
  9 10  1  0
  9 11  1  0
 10 12  1  0
 11  5  1  1
 33 34  1  0
 33 35  1  0
 34 36  1  0
 35 37  1  0
 37 43  1  1
 20 21  2  0
 21 22  1  0
M  CHG  3   2  -1  26  -1  41  -1
M  END
>  <COMPND>  (63) 
    udp_gluA.pdb 

>  <AUTHOR>  (63) 
    GENERATED BY OPEN BABEL 3.1.1

>  <MASTER>  (63) 
        0    0    0    0    0    0    0    0   56    0   56    0

>  <minimizedAffinity>  (63) 
-8.07577

>  <CNNscore>  (63) 
0.5259997249

>  <CNNaffinity>  (63) 
4.3339209557

>  <CNN_VS>  (63) 
2.2796411514

>  <CNNaffinity_variance>  (63) 
0.3320043683

$$$$
64
     RDKit          3D

 43 45  0  0  0  0  0  0  0  0999 V2000
   21.6208   72.9460   -5.9344 P   0  0  2  0  0  0  0  0  0  0  0  0
   20.7761   74.2312   -6.4379 O   0  0  0  0  0  0  0  0  0  0  0  0
   23.0935   73.0056   -6.2167 O   0  0  0  0  0  0  0  0  0  0  0  0
   20.8328   71.6872   -6.5766 O   0  0  0  0  0  0  0  0  0  0  0  0
   20.2942   71.8198   -7.8792 C   0  0  0  0  0  0  0  0  0  0  0  0
   18.9325   70.0974   -6.9011 O   0  0  0  0  0  0  0  0  0  0  0  0
   17.6549   69.8329   -9.6010 O   0  0  0  0  0  0  0  0  0  0  0  0
   15.8255   71.3083   -8.2181 O   0  0  0  0  0  0  0  0  0  0  0  0
   18.1286   71.0044   -8.9363 C   0  0  1  0  0  0  0  0  0  0  0  0
   17.1789   71.3960   -7.8241 C   0  0  2  0  0  0  0  0  0  0  0  0
   19.3864   70.6303   -8.1642 C   0  0  1  0  0  0  0  0  0  0  0  0
   17.5373   70.3973   -6.7369 C   0  0  2  0  0  0  0  0  0  0  0  0
   16.8515   70.0471  -10.1012 H   0  0  0  0  0  0  0  0  0  0  0  0
   15.6474   71.9640   -8.9112 H   0  0  0  0  0  0  0  0  0  0  0  0
   16.2246   69.0070   -4.6584 O   0  0  0  0  0  0  0  0  0  0  0  0
   16.7784   72.5123   -1.7171 O   0  0  0  0  0  0  0  0  0  0  0  0
   17.3248   70.9230   -5.4181 N   0  0  0  0  0  0  0  0  0  0  0  0
   16.5008   70.7545   -3.1958 N   0  0  0  0  0  0  0  0  0  0  0  0
   16.6537   70.1429   -4.4470 C   0  0  0  0  0  0  0  0  0  0  0  0
   17.7799   72.1962   -5.0973 C   0  0  0  0  0  0  0  0  0  0  0  0
   17.6268   72.7657   -3.9003 C   0  0  0  0  0  0  0  0  0  0  0  0
   16.9355   72.0181   -2.8295 C   0  0  0  0  0  0  0  0  0  0  0  0
   16.0348   70.2316   -2.5039 H   0  0  0  0  0  0  0  0  0  0  0  0
   21.2390   72.8523   -4.3665 O   0  0  0  0  0  0  0  0  0  0  0  0
   21.3703   71.6329   -3.3131 P   0  0  2  0  0  0  0  0  0  0  0  0
   22.9149   71.1744   -3.4688 O   0  0  0  0  0  0  0  0  0  0  0  0
   20.3737   70.5295   -3.5211 O   0  0  0  0  0  0  0  0  0  0  0  0
   21.2983   72.3355   -1.8627 O   0  0  0  0  0  0  0  0  0  0  0  0
   22.2967   74.3317   -1.0706 O   0  0  0  0  0  0  0  0  0  0  0  0
   22.2919   71.9870    2.3309 O   0  0  0  0  0  0  0  0  0  0  0  0
   23.0075   70.8387   -0.2582 O   0  0  0  0  0  0  0  0  0  0  0  0
   20.3587   74.1384    2.0389 O   0  0  0  0  0  0  0  0  0  0  0  0
   21.8036   72.4668    1.0782 C   0  0  2  0  0  0  0  0  0  0  0  0
   22.8558   72.2308   -0.0056 C   0  0  2  0  0  0  0  0  0  0  0  0
   21.5162   73.9628    1.2242 C   0  0  1  0  0  0  0  0  0  0  0  0
   22.4680   72.9338   -1.3071 C   0  0  1  0  0  0  0  0  0  0  0  0
   21.2624   74.6162   -0.1312 C   0  0  1  0  0  0  0  0  0  0  0  0
   22.4815   71.0380    2.2622 H   0  0  0  0  0  0  0  0  0  0  0  0
   23.2533   70.3863    0.5635 H   0  0  0  0  0  0  0  0  0  0  0  0
   20.5071   73.7268    2.9046 H   0  0  0  0  0  0  0  0  0  0  0  0
   22.0214   76.4806    1.0727 O   0  0  0  0  0  0  0  0  0  0  0  0
   20.7875   76.8848   -0.8016 O   0  0  0  0  0  0  0  0  0  0  0  0
   21.3109   76.1053   -0.0196 C   0  0  0  0  0  0  0  0  0  0  0  0
  1  4  1  0
  1 24  1  0
  1  2  1  6
  1  3  2  0
 25 28  1  0
 25 24  1  0
 25 26  1  6
 25 27  2  0
  6 11  1  0
  6 12  1  0
 29 36  1  0
 29 37  1  0
  9  7  1  1
  7 13  1  0
 10  8  1  6
  8 14  1  0
  4  5  1  0
 36 28  1  1
 33 30  1  1
 30 38  1  0
 34 31  1  6
 31 39  1  0
 35 32  1  1
 32 40  1  0
 41 43  1  0
 15 19  2  0
 42 43  2  0
 16 22  2  0
 12 17  1  1
 17 19  1  0
 17 20  1  0
 18 19  1  0
 18 22  1  0
 18 23  1  0
  9 10  1  0
  9 11  1  0
 10 12  1  0
 11  5  1  1
 33 34  1  0
 33 35  1  0
 34 36  1  0
 35 37  1  0
 37 43  1  1
 20 21  2  0
 21 22  1  0
M  CHG  3   2  -1  26  -1  41  -1
M  END
>  <COMPND>  (64) 
    udp_gluA.pdb 

>  <AUTHOR>  (64) 
    GENERATED BY OPEN BABEL 3.1.1

>  <MASTER>  (64) 
        0    0    0    0    0    0    0    0   56    0   56    0

>  <minimizedAffinity>  (64) 
-6.95799

>  <CNNscore>  (64) 
0.4864179194

>  <CNNaffinity>  (64) 
4.1549797058

>  <CNN_VS>  (64) 
2.0210566521

>  <CNNaffinity_variance>  (64) 
0.1596188545

$$$$
65
     RDKit          3D

 43 45  0  0  0  0  0  0  0  0999 V2000
   22.4897   73.3647   -5.4174 P   0  0  2  0  0  0  0  0  0  0  0  0
   22.9630   74.4949   -6.4746 O   0  0  0  0  0  0  0  0  0  0  0  0
   23.6050   72.6513   -4.7110 O   0  0  0  0  0  0  0  0  0  0  0  0
   21.4871   72.4271   -6.2739 O   0  0  0  0  0  0  0  0  0  0  0  0
   20.3089   73.0054   -6.8050 C   0  0  0  0  0  0  0  0  0  0  0  0
   19.5467   70.8038   -7.3965 O   0  0  0  0  0  0  0  0  0  0  0  0
   18.3329   72.0786   -9.8240 O   0  0  0  0  0  0  0  0  0  0  0  0
   16.1860   71.7854   -8.1685 O   0  0  0  0  0  0  0  0  0  0  0  0
   18.4552   72.5942   -8.4982 C   0  0  1  0  0  0  0  0  0  0  0  0
   17.4624   71.9156   -7.5783 C   0  0  2  0  0  0  0  0  0  0  0  0
   19.7877   72.1231   -7.9320 C   0  0  1  0  0  0  0  0  0  0  0  0
   18.1304   70.5744   -7.3277 C   0  0  2  0  0  0  0  0  0  0  0  0
   17.4888   72.3665  -10.2067 H   0  0  0  0  0  0  0  0  0  0  0  0
   15.8026   72.6662   -8.3074 H   0  0  0  0  0  0  0  0  0  0  0  0
   15.5761   69.6187   -6.5938 O   0  0  0  0  0  0  0  0  0  0  0  0
   17.0046   68.5216   -2.3512 O   0  0  0  0  0  0  0  0  0  0  0  0
   17.8071   70.0337   -6.0378 N   0  0  0  0  0  0  0  0  0  0  0  0
   16.2898   69.0741   -4.4811 N   0  0  0  0  0  0  0  0  0  0  0  0
   16.4932   69.5812   -5.7713 C   0  0  0  0  0  0  0  0  0  0  0  0
   18.7853   69.9541   -5.0541 C   0  0  0  0  0  0  0  0  0  0  0  0
   18.5763   69.4682   -3.8289 C   0  0  0  0  0  0  0  0  0  0  0  0
   17.2307   68.9752   -3.4689 C   0  0  0  0  0  0  0  0  0  0  0  0
   15.3823   68.7549   -4.2714 H   0  0  0  0  0  0  0  0  0  0  0  0
   21.4861   74.1760   -4.4441 O   0  0  0  0  0  0  0  0  0  0  0  0
   21.7718   75.0445   -3.1107 P   0  0  2  0  0  0  0  0  0  0  0  0
   20.6753   76.2318   -3.2008 O   0  0  0  0  0  0  0  0  0  0  0  0
   23.1894   75.5206   -2.9779 O   0  0  0  0  0  0  0  0  0  0  0  0
   21.2626   74.1111   -1.8974 O   0  0  0  0  0  0  0  0  0  0  0  0
   22.3274   73.6853    0.1747 O   0  0  0  0  0  0  0  0  0  0  0  0
   20.2304   70.1774   -0.4292 O   0  0  0  0  0  0  0  0  0  0  0  0
   21.6423   71.4585   -2.6428 O   0  0  0  0  0  0  0  0  0  0  0  0
   19.2743   72.1363    1.4942 O   0  0  0  0  0  0  0  0  0  0  0  0
   20.4759   71.5809   -0.5190 C   0  0  2  0  0  0  0  0  0  0  0  0
   21.7822   71.8246   -1.2749 C   0  0  2  0  0  0  0  0  0  0  0  0
   20.5727   72.1359    0.9039 C   0  0  1  0  0  0  0  0  0  0  0  0
   22.1959   73.2946   -1.1926 C   0  0  1  0  0  0  0  0  0  0  0  0
   21.1115   73.5636    0.9094 C   0  0  1  0  0  0  0  0  0  0  0  0
   20.1650   69.8027   -1.3218 H   0  0  0  0  0  0  0  0  0  0  0  0
   21.3796   70.5269   -2.7025 H   0  0  0  0  0  0  0  0  0  0  0  0
   18.9199   71.2334    1.4966 H   0  0  0  0  0  0  0  0  0  0  0  0
   20.4159   74.2027    3.0563 O   0  0  0  0  0  0  0  0  0  0  0  0
   22.6622   74.0893    2.6815 O   0  0  0  0  0  0  0  0  0  0  0  0
   21.5107   73.9746    2.2893 C   0  0  0  0  0  0  0  0  0  0  0  0
  1  4  1  0
  1 24  1  0
  1  2  1  6
  1  3  2  0
 25 28  1  0
 25 24  1  0
 25 26  1  6
 25 27  2  0
  6 11  1  0
  6 12  1  0
 29 36  1  0
 29 37  1  0
  9  7  1  6
  7 13  1  0
 10  8  1  6
  8 14  1  0
  4  5  1  0
 36 28  1  1
 33 30  1  1
 30 38  1  0
 34 31  1  6
 31 39  1  0
 35 32  1  6
 32 40  1  0
 41 43  1  0
 15 19  2  0
 42 43  2  0
 16 22  2  0
 12 17  1  1
 17 19  1  0
 17 20  1  0
 18 19  1  0
 18 22  1  0
 18 23  1  0
  9 10  1  0
  9 11  1  0
 10 12  1  0
 11  5  1  1
 33 34  1  0
 33 35  1  0
 34 36  1  0
 35 37  1  0
 37 43  1  1
 20 21  2  0
 21 22  1  0
M  CHG  3   2  -1  26  -1  41  -1
M  END
>  <COMPND>  (65) 
    udp_gluA.pdb 

>  <AUTHOR>  (65) 
    GENERATED BY OPEN BABEL 3.1.1

>  <MASTER>  (65) 
        0    0    0    0    0    0    0    0   56    0   56    0

>  <minimizedAffinity>  (65) 
-7.71385

>  <CNNscore>  (65) 
0.4801951647

>  <CNNaffinity>  (65) 
4.2413582802

>  <CNN_VS>  (65) 
2.0366797447

>  <CNNaffinity_variance>  (65) 
0.3728386164

$$$$
66
     RDKit          3D

 43 45  0  0  0  0  0  0  0  0999 V2000
   19.5290   69.7605   -2.6835 P   0  0  2  0  0  0  0  0  0  0  0  0
   19.6007   69.2872   -1.1376 O   0  0  0  0  0  0  0  0  0  0  0  0
   20.4634   69.0400   -3.6107 O   0  0  0  0  0  0  0  0  0  0  0  0
   19.7143   71.3661   -2.6073 O   0  0  0  0  0  0  0  0  0  0  0  0
   18.5804   72.1648   -2.3232 C   0  0  0  0  0  0  0  0  0  0  0  0
   19.9460   72.5338   -0.3799 O   0  0  0  0  0  0  0  0  0  0  0  0
   19.3043   75.4441   -0.7107 O   0  0  0  0  0  0  0  0  0  0  0  0
   21.8114   75.2629   -1.7679 O   0  0  0  0  0  0  0  0  0  0  0  0
   19.5214   74.4475   -1.7097 C   0  0  1  0  0  0  0  0  0  0  0  0
   20.9947   74.1112   -1.8031 C   0  0  2  0  0  0  0  0  0  0  0  0
   18.9275   73.1394   -1.2052 C   0  0  1  0  0  0  0  0  0  0  0  0
   21.1917   73.2174   -0.5906 C   0  0  2  0  0  0  0  0  0  0  0  0
   19.6754   76.2892   -1.0106 H   0  0  0  0  0  0  0  0  0  0  0  0
   21.6492   75.7986   -2.5608 H   0  0  0  0  0  0  0  0  0  0  0  0
   22.2894   71.6154    1.4600 O   0  0  0  0  0  0  0  0  0  0  0  0
   25.1707   69.5231   -1.4666 O   0  0  0  0  0  0  0  0  0  0  0  0
   22.2298   72.2458   -0.7889 N   0  0  0  0  0  0  0  0  0  0  0  0
   23.7241   70.5756    0.0006 N   0  0  0  0  0  0  0  0  0  0  0  0
   22.7111   71.4933    0.3084 C   0  0  0  0  0  0  0  0  0  0  0  0
   22.7587   72.0452   -2.0581 C   0  0  0  0  0  0  0  0  0  0  0  0
   23.7239   71.1666   -2.3360 C   0  0  0  0  0  0  0  0  0  0  0  0
   24.2826   70.3408   -1.2454 C   0  0  0  0  0  0  0  0  0  0  0  0
   24.0767   70.0414    0.7488 H   0  0  0  0  0  0  0  0  0  0  0  0
   17.9619   69.5922   -3.0422 O   0  0  0  0  0  0  0  0  0  0  0  0
   17.2314   69.0315   -4.3710 P   0  0  2  0  0  0  0  0  0  0  0  0
   15.7986   69.7845   -4.3510 O   0  0  0  0  0  0  0  0  0  0  0  0
   17.1424   67.5344   -4.4395 O   0  0  0  0  0  0  0  0  0  0  0  0
   18.0316   69.7113   -5.5957 O   0  0  0  0  0  0  0  0  0  0  0  0
   18.9895   71.8736   -5.7227 O   0  0  0  0  0  0  0  0  0  0  0  0
   17.9827   71.1671   -9.6667 O   0  0  0  0  0  0  0  0  0  0  0  0
   16.1503   70.4271   -7.5152 O   0  0  0  0  0  0  0  0  0  0  0  0
   20.7546   70.9760   -8.8116 O   0  0  0  0  0  0  0  0  0  0  0  0
   18.3960   70.8202   -8.3450 C   0  0  2  0  0  0  0  0  0  0  0  0
   17.3131   71.2296   -7.3463 C   0  0  2  0  0  0  0  0  0  0  0  0
   19.7016   71.5612   -8.0480 C   0  0  1  0  0  0  0  0  0  0  0  0
   17.8129   71.0859   -5.9081 C   0  0  1  0  0  0  0  0  0  0  0  0
   20.0663   71.4761   -6.5687 C   0  0  1  0  0  0  0  0  0  0  0  0
   17.1546   70.7079   -9.8778 H   0  0  0  0  0  0  0  0  0  0  0  0
   15.8280   70.5132   -8.4257 H   0  0  0  0  0  0  0  0  0  0  0  0
   20.5348   71.0236   -9.7552 H   0  0  0  0  0  0  0  0  0  0  0  0
   20.7161   73.3181   -5.2701 O   0  0  0  0  0  0  0  0  0  0  0  0
   22.2495   72.4889   -6.7398 O   0  0  0  0  0  0  0  0  0  0  0  0
   21.1396   72.4586   -6.2296 C   0  0  0  0  0  0  0  0  0  0  0  0
  1  4  1  0
  1 24  1  0
  1  2  1  1
  1  3  2  0
 25 28  1  0
 25 24  1  0
 25 26  1  1
 25 27  2  0
  6 11  1  0
  6 12  1  0
 29 36  1  0
 29 37  1  0
  9  7  1  1
  7 13  1  0
 10  8  1  1
  8 14  1  0
  4  5  1  0
 36 28  1  6
 33 30  1  6
 30 38  1  0
 34 31  1  1
 31 39  1  0
 35 32  1  6
 32 40  1  0
 41 43  1  0
 15 19  2  0
 42 43  2  0
 16 22  2  0
 12 17  1  6
 17 19  1  0
 17 20  1  0
 18 19  1  0
 18 22  1  0
 18 23  1  0
  9 10  1  0
  9 11  1  0
 10 12  1  0
 11  5  1  6
 33 34  1  0
 33 35  1  0
 34 36  1  0
 35 37  1  0
 37 43  1  6
 20 21  2  0
 21 22  1  0
M  CHG  3   2  -1  26  -1  41  -1
M  END
>  <COMPND>  (66) 
    udp_gluA.pdb 

>  <AUTHOR>  (66) 
    GENERATED BY OPEN BABEL 3.1.1

>  <MASTER>  (66) 
        0    0    0    0    0    0    0    0   56    0   56    0

>  <minimizedAffinity>  (66) 
-8.35430

>  <CNNscore>  (66) 
0.4777285457

>  <CNNaffinity>  (66) 
4.2896738052

>  <CNN_VS>  (66) 
2.0492997169

>  <CNNaffinity_variance>  (66) 
0.3170176446

$$$$
67
     RDKit          3D

 43 45  0  0  0  0  0  0  0  0999 V2000
   19.5063   69.3936   -2.9894 P   0  0  2  0  0  0  0  0  0  0  0  0
   19.6465   69.2472   -1.3838 O   0  0  0  0  0  0  0  0  0  0  0  0
   18.9935   68.1723   -3.6946 O   0  0  0  0  0  0  0  0  0  0  0  0
   20.9628   69.9174   -3.4604 O   0  0  0  0  0  0  0  0  0  0  0  0
   21.2674   71.2922   -3.3125 C   0  0  0  0  0  0  0  0  0  0  0  0
   22.9197   72.5578   -2.1101 O   0  0  0  0  0  0  0  0  0  0  0  0
   24.7526   70.2244   -2.5434 O   0  0  0  0  0  0  0  0  0  0  0  0
   23.9364   69.8704    0.0343 O   0  0  0  0  0  0  0  0  0  0  0  0
   23.3464   70.2352   -2.2961 C   0  0  1  0  0  0  0  0  0  0  0  0
   23.0722   70.5614   -0.8433 C   0  0  2  0  0  0  0  0  0  0  0  0
   22.7530   71.4415   -3.0110 C   0  0  1  0  0  0  0  0  0  0  0  0
   23.2867   72.0650   -0.8117 C   0  0  2  0  0  0  0  0  0  0  0  0
   25.1539   69.4622   -2.0965 H   0  0  0  0  0  0  0  0  0  0  0  0
   23.7605   68.9176   -0.0224 H   0  0  0  0  0  0  0  0  0  0  0  0
   23.6758   74.7159    0.0815 O   0  0  0  0  0  0  0  0  0  0  0  0
   20.1164   74.4495    2.9976 O   0  0  0  0  0  0  0  0  0  0  0  0
   22.4763   72.7134    0.1800 N   0  0  0  0  0  0  0  0  0  0  0  0
   21.9033   74.5804    1.5337 N   0  0  0  0  0  0  0  0  0  0  0  0
   22.7563   74.0479    0.5581 C   0  0  0  0  0  0  0  0  0  0  0  0
   21.4175   72.0301    0.7656 C   0  0  0  0  0  0  0  0  0  0  0  0
   20.6131   72.5509    1.6942 C   0  0  0  0  0  0  0  0  0  0  0  0
   20.8380   73.9398    2.1456 C   0  0  0  0  0  0  0  0  0  0  0  0
   22.0798   75.5073    1.8146 H   0  0  0  0  0  0  0  0  0  0  0  0
   18.5773   70.7061   -3.1543 O   0  0  0  0  0  0  0  0  0  0  0  0
   17.1739   70.9230   -3.9270 P   0  0  2  0  0  0  0  0  0  0  0  0
   16.9184   72.5155   -3.7899 O   0  0  0  0  0  0  0  0  0  0  0  0
   16.0501   70.0699   -3.4138 O   0  0  0  0  0  0  0  0  0  0  0  0
   17.5260   70.6998   -5.4854 O   0  0  0  0  0  0  0  0  0  0  0  0
   18.8838   72.4299   -6.3642 O   0  0  0  0  0  0  0  0  0  0  0  0
   17.9957   70.2512   -9.7602 O   0  0  0  0  0  0  0  0  0  0  0  0
   15.9321   70.7876   -7.7631 O   0  0  0  0  0  0  0  0  0  0  0  0
   20.6250   70.0414   -8.5381 O   0  0  0  0  0  0  0  0  0  0  0  0
   18.2565   70.4504   -8.3708 C   0  0  2  0  0  0  0  0  0  0  0  0
   17.2144   71.4040   -7.7860 C   0  0  2  0  0  0  0  0  0  0  0  0
   19.6595   71.0462   -8.2337 C   0  0  1  0  0  0  0  0  0  0  0  0
   17.5918   71.8216   -6.3641 C   0  0  1  0  0  0  0  0  0  0  0  0
   19.9133   71.5534   -6.8171 C   0  0  1  0  0  0  0  0  0  0  0  0
   17.1092   69.8731   -9.8719 H   0  0  0  0  0  0  0  0  0  0  0  0
   15.6864   70.5199   -8.6621 H   0  0  0  0  0  0  0  0  0  0  0  0
   20.4744   69.7100   -9.4372 H   0  0  0  0  0  0  0  0  0  0  0  0
   20.8395   73.6314   -6.2466 O   0  0  0  0  0  0  0  0  0  0  0  0
   22.2434   72.0809   -7.1546 O   0  0  0  0  0  0  0  0  0  0  0  0
   21.1321   72.4165   -6.7732 C   0  0  0  0  0  0  0  0  0  0  0  0
  1  4  1  0
  1 24  1  0
  1  2  1  1
  1  3  2  0
 25 28  1  0
 25 24  1  0
 25 26  1  6
 25 27  2  0
  6 11  1  0
  6 12  1  0
 29 36  1  0
 29 37  1  0
  9  7  1  1
  7 13  1  0
 10  8  1  1
  8 14  1  0
  4  5  1  0
 36 28  1  1
 33 30  1  6
 30 38  1  0
 34 31  1  1
 31 39  1  0
 35 32  1  1
 32 40  1  0
 41 43  1  0
 15 19  2  0
 42 43  2  0
 16 22  2  0
 12 17  1  1
 17 19  1  0
 17 20  1  0
 18 19  1  0
 18 22  1  0
 18 23  1  0
  9 10  1  0
  9 11  1  0
 10 12  1  0
 11  5  1  1
 33 34  1  0
 33 35  1  0
 34 36  1  0
 35 37  1  0
 37 43  1  6
 20 21  2  0
 21 22  1  0
M  CHG  3   2  -1  26  -1  41  -1
M  END
>  <COMPND>  (67) 
    udp_gluA.pdb 

>  <AUTHOR>  (67) 
    GENERATED BY OPEN BABEL 3.1.1

>  <MASTER>  (67) 
        0    0    0    0    0    0    0    0   56    0   56    0

>  <minimizedAffinity>  (67) 
-8.23421

>  <CNNscore>  (67) 
0.4624218643

>  <CNNaffinity>  (67) 
4.2596082687

>  <CNN_VS>  (67) 
1.9697359800

>  <CNNaffinity_variance>  (67) 
0.2969249189

$$$$
68
     RDKit          3D

 43 45  0  0  0  0  0  0  0  0999 V2000
   17.7114   75.5670   -5.3553 P   0  0  2  0  0  0  0  0  0  0  0  0
   16.2243   75.7173   -4.7349 O   0  0  0  0  0  0  0  0  0  0  0  0
   18.0602   76.5709   -6.4148 O   0  0  0  0  0  0  0  0  0  0  0  0
   17.7897   74.0148   -5.8052 O   0  0  0  0  0  0  0  0  0  0  0  0
   17.5455   73.6908   -7.1616 C   0  0  0  0  0  0  0  0  0  0  0  0
   19.2255   72.0540   -6.6361 O   0  0  0  0  0  0  0  0  0  0  0  0
   19.5203   71.6782   -9.5964 O   0  0  0  0  0  0  0  0  0  0  0  0
   17.9878   69.5414   -8.8742 O   0  0  0  0  0  0  0  0  0  0  0  0
   18.3444   71.9462   -8.8322 C   0  0  1  0  0  0  0  0  0  0  0  0
   17.9154   70.7055   -8.0779 C   0  0  2  0  0  0  0  0  0  0  0  0
   18.7248   72.8914   -7.7007 C   0  0  1  0  0  0  0  0  0  0  0  0
   18.8990   70.6843   -6.9203 C   0  0  2  0  0  0  0  0  0  0  0  0
   19.3022   71.0761  -10.3255 H   0  0  0  0  0  0  0  0  0  0  0  0
   17.3427   69.6032   -9.5967 H   0  0  0  0  0  0  0  0  0  0  0  0
   20.4320   69.6677   -4.7773 O   0  0  0  0  0  0  0  0  0  0  0  0
   16.6648   68.3955   -2.4463 O   0  0  0  0  0  0  0  0  0  0  0  0
   18.3445   70.0821   -5.7411 N   0  0  0  0  0  0  0  0  0  0  0  0
   18.5543   69.0341   -3.6188 N   0  0  0  0  0  0  0  0  0  0  0  0
   19.2025   69.6030   -4.7231 C   0  0  0  0  0  0  0  0  0  0  0  0
   16.9664   69.9724   -5.6008 C   0  0  0  0  0  0  0  0  0  0  0  0
   16.3632   69.4278   -4.5423 C   0  0  0  0  0  0  0  0  0  0  0  0
   17.1875   68.9020   -3.4344 C   0  0  0  0  0  0  0  0  0  0  0  0
   19.1309   68.6916   -2.8980 H   0  0  0  0  0  0  0  0  0  0  0  0
   18.6576   75.6139   -4.0456 O   0  0  0  0  0  0  0  0  0  0  0  0
   20.1600   75.0693   -3.8015 P   0  0  2  0  0  0  0  0  0  0  0  0
   20.9527   76.3860   -3.2931 O   0  0  0  0  0  0  0  0  0  0  0  0
   20.7745   74.4007   -4.9971 O   0  0  0  0  0  0  0  0  0  0  0  0
   20.0480   74.1313   -2.4939 O   0  0  0  0  0  0  0  0  0  0  0  0
   19.6882   71.8022   -2.2590 O   0  0  0  0  0  0  0  0  0  0  0  0
   17.6867   73.2980    1.0310 O   0  0  0  0  0  0  0  0  0  0  0  0
   17.4748   74.6273   -1.5617 O   0  0  0  0  0  0  0  0  0  0  0  0
   20.2749   72.0150    1.3566 O   0  0  0  0  0  0  0  0  0  0  0  0
   18.7011   73.2642    0.0271 C   0  0  2  0  0  0  0  0  0  0  0  0
   18.0549   73.3444   -1.3562 C   0  0  2  0  0  0  0  0  0  0  0  0
   19.4729   71.9515    0.1787 C   0  0  1  0  0  0  0  0  0  0  0  0
   19.0836   73.0808   -2.4567 C   0  0  1  0  0  0  0  0  0  0  0  0
   20.3844   71.6997   -1.0189 C   0  0  1  0  0  0  0  0  0  0  0  0
   17.1828   74.1235    0.9542 H   0  0  0  0  0  0  0  0  0  0  0  0
   16.8213   74.8013   -0.8668 H   0  0  0  0  0  0  0  0  0  0  0  0
   19.7068   72.1751    2.1263 H   0  0  0  0  0  0  0  0  0  0  0  0
   19.8419   69.4224   -0.8742 O   0  0  0  0  0  0  0  0  0  0  0  0
   22.0424   69.9519   -1.1506 O   0  0  0  0  0  0  0  0  0  0  0  0
   20.8745   70.2883   -1.0250 C   0  0  0  0  0  0  0  0  0  0  0  0
  1  4  1  0
  1 24  1  0
  1  2  1  1
  1  3  2  0
 25 28  1  0
 25 24  1  0
 25 26  1  1
 25 27  2  0
  6 11  1  0
  6 12  1  0
 29 36  1  0
 29 37  1  0
  9  7  1  6
  7 13  1  0
 10  8  1  6
  8 14  1  0
  4  5  1  0
 36 28  1  1
 33 30  1  1
 30 38  1  0
 34 31  1  6
 31 39  1  0
 35 32  1  1
 32 40  1  0
 41 43  1  0
 15 19  2  0
 42 43  2  0
 16 22  2  0
 12 17  1  1
 17 19  1  0
 17 20  1  0
 18 19  1  0
 18 22  1  0
 18 23  1  0
  9 10  1  0
  9 11  1  0
 10 12  1  0
 11  5  1  1
 33 34  1  0
 33 35  1  0
 34 36  1  0
 35 37  1  0
 37 43  1  1
 20 21  2  0
 21 22  1  0
M  CHG  3   2  -1  26  -1  41  -1
M  END
>  <COMPND>  (68) 
    udp_gluA.pdb 

>  <AUTHOR>  (68) 
    GENERATED BY OPEN BABEL 3.1.1

>  <MASTER>  (68) 
        0    0    0    0    0    0    0    0   56    0   56    0

>  <minimizedAffinity>  (68) 
-6.80983

>  <CNNscore>  (68) 
0.4612095058

>  <CNNaffinity>  (68) 
4.0365591049

>  <CNN_VS>  (68) 
1.8616994619

>  <CNNaffinity_variance>  (68) 
1.0168257952

$$$$
69
     RDKit          3D

 43 45  0  0  0  0  0  0  0  0999 V2000
   22.2978   70.8495   -1.6840 P   0  0  2  0  0  0  0  0  0  0  0  0
   23.4676   71.0157   -2.7899 O   0  0  0  0  0  0  0  0  0  0  0  0
   22.7771   70.7424   -0.2661 O   0  0  0  0  0  0  0  0  0  0  0  0
   21.4247   69.6001   -2.2269 O   0  0  0  0  0  0  0  0  0  0  0  0
   20.6915   69.7587   -3.4276 C   0  0  0  0  0  0  0  0  0  0  0  0
   18.6549   70.8530   -4.0853 O   0  0  0  0  0  0  0  0  0  0  0  0
   17.2454   68.8896   -2.3105 O   0  0  0  0  0  0  0  0  0  0  0  0
   16.8448   67.8409   -4.7956 O   0  0  0  0  0  0  0  0  0  0  0  0
   18.3971   68.6997   -3.1328 C   0  0  1  0  0  0  0  0  0  0  0  0
   17.9950   68.6344   -4.5910 C   0  0  2  0  0  0  0  0  0  0  0  0
   19.2231   69.9779   -3.0869 C   0  0  1  0  0  0  0  0  0  0  0  0
   17.7610   70.0991   -4.9195 C   0  0  2  0  0  0  0  0  0  0  0  0
   16.7020   68.0858   -2.3240 H   0  0  0  0  0  0  0  0  0  0  0  0
   17.0451   66.9177   -4.5730 H   0  0  0  0  0  0  0  0  0  0  0  0
   15.8399   70.0194   -6.9881 O   0  0  0  0  0  0  0  0  0  0  0  0
   18.9353   71.2852  -10.1599 O   0  0  0  0  0  0  0  0  0  0  0  0
   18.0378   70.4032   -6.2949 N   0  0  0  0  0  0  0  0  0  0  0  0
   17.3836   70.6489   -8.5660 N   0  0  0  0  0  0  0  0  0  0  0  0
   17.0014   70.3329   -7.2557 C   0  0  0  0  0  0  0  0  0  0  0  0
   19.3223   70.7676   -6.6798 C   0  0  0  0  0  0  0  0  0  0  0  0
   19.6714   71.0661   -7.9327 C   0  0  0  0  0  0  0  0  0  0  0  0
   18.6480   71.0161   -8.9974 C   0  0  0  0  0  0  0  0  0  0  0  0
   16.6796   70.6050   -9.2529 H   0  0  0  0  0  0  0  0  0  0  0  0
   21.3390   72.1174   -1.9768 O   0  0  0  0  0  0  0  0  0  0  0  0
   21.6219   73.7064   -1.8822 P   0  0  2  0  0  0  0  0  0  0  0  0
   23.2007   73.7808   -1.5326 O   0  0  0  0  0  0  0  0  0  0  0  0
   20.7383   74.4324   -0.9096 O   0  0  0  0  0  0  0  0  0  0  0  0
   21.5166   74.2321   -3.4037 O   0  0  0  0  0  0  0  0  0  0  0  0
   20.0666   73.5329   -5.1410 O   0  0  0  0  0  0  0  0  0  0  0  0
   23.4412   74.6342   -7.2546 O   0  0  0  0  0  0  0  0  0  0  0  0
   23.6806   73.1315   -4.7608 O   0  0  0  0  0  0  0  0  0  0  0  0
   21.1056   76.3648   -7.2297 O   0  0  0  0  0  0  0  0  0  0  0  0
   22.4943   74.6942   -6.1879 C   0  0  2  0  0  0  0  0  0  0  0  0
   22.4599   73.3512   -5.4580 C   0  0  2  0  0  0  0  0  0  0  0  0
   21.1229   75.0081   -6.7901 C   0  0  1  0  0  0  0  0  0  0  0  0
   21.3009   73.2997   -4.4615 C   0  0  1  0  0  0  0  0  0  0  0  0
   20.0074   74.8125   -5.7674 C   0  0  1  0  0  0  0  0  0  0  0  0
   24.3205   74.4358   -6.8958 H   0  0  0  0  0  0  0  0  0  0  0  0
   24.4204   73.1631   -5.3870 H   0  0  0  0  0  0  0  0  0  0  0  0
   21.8110   76.5027   -7.8811 H   0  0  0  0  0  0  0  0  0  0  0  0
   18.8066   74.6032   -7.7713 O   0  0  0  0  0  0  0  0  0  0  0  0
   17.5999   74.9368   -5.8656 O   0  0  0  0  0  0  0  0  0  0  0  0
   18.6714   74.7972   -6.4360 C   0  0  0  0  0  0  0  0  0  0  0  0
  1  4  1  0
  1 24  1  0
  1  2  1  6
  1  3  2  0
 25 28  1  0
 25 24  1  0
 25 26  1  1
 25 27  2  0
  6 11  1  0
  6 12  1  0
 29 36  1  0
 29 37  1  0
  9  7  1  1
  7 13  1  0
 10  8  1  1
  8 14  1  0
  4  5  1  0
 36 28  1  1
 33 30  1  6
 30 38  1  0
 34 31  1  1
 31 39  1  0
 35 32  1  1
 32 40  1  0
 41 43  1  0
 15 19  2  0
 42 43  2  0
 16 22  2  0
 12 17  1  6
 17 19  1  0
 17 20  1  0
 18 19  1  0
 18 22  1  0
 18 23  1  0
  9 10  1  0
  9 11  1  0
 10 12  1  0
 11  5  1  6
 33 34  1  0
 33 35  1  0
 34 36  1  0
 35 37  1  0
 37 43  1  6
 20 21  2  0
 21 22  1  0
M  CHG  3   2  -1  26  -1  41  -1
M  END
>  <COMPND>  (69) 
    udp_gluA.pdb 

>  <AUTHOR>  (69) 
    GENERATED BY OPEN BABEL 3.1.1

>  <MASTER>  (69) 
        0    0    0    0    0    0    0    0   56    0   56    0

>  <minimizedAffinity>  (69) 
-6.76245

>  <CNNscore>  (69) 
0.4279918373

>  <CNNaffinity>  (69) 
4.2031106949

>  <CNN_VS>  (69) 
1.7988970280

>  <CNNaffinity_variance>  (69) 
0.4409092963

$$$$
70
     RDKit          3D

 43 45  0  0  0  0  0  0  0  0999 V2000
   23.5638   70.7334   -2.2602 P   0  0  2  0  0  0  0  0  0  0  0  0
   23.8639   71.5596   -3.6189 O   0  0  0  0  0  0  0  0  0  0  0  0
   24.7484   70.0195   -1.6781 O   0  0  0  0  0  0  0  0  0  0  0  0
   22.2998   69.7993   -2.6446 O   0  0  0  0  0  0  0  0  0  0  0  0
   21.4706   70.1938   -3.7223 C   0  0  0  0  0  0  0  0  0  0  0  0
   19.3125   71.1315   -4.2131 O   0  0  0  0  0  0  0  0  0  0  0  0
   18.2581   69.3768   -2.0220 O   0  0  0  0  0  0  0  0  0  0  0  0
   17.5680   67.9998   -4.2722 O   0  0  0  0  0  0  0  0  0  0  0  0
   19.2926   69.1149   -2.9706 C   0  0  1  0  0  0  0  0  0  0  0  0
   18.6961   68.8471   -4.3361 C   0  0  2  0  0  0  0  0  0  0  0  0
   20.0547   70.4121   -3.2047 C   0  0  1  0  0  0  0  0  0  0  0  0
   18.3489   70.2484   -4.8090 C   0  0  2  0  0  0  0  0  0  0  0  0
   17.7572   68.5624   -1.8562 H   0  0  0  0  0  0  0  0  0  0  0  0
   17.8412   67.1202   -3.9665 H   0  0  0  0  0  0  0  0  0  0  0  0
   16.1924   69.7438   -6.5614 O   0  0  0  0  0  0  0  0  0  0  0  0
   18.7265   70.7764  -10.2703 O   0  0  0  0  0  0  0  0  0  0  0  0
   18.4176   70.3776   -6.2371 N   0  0  0  0  0  0  0  0  0  0  0  0
   17.4569   70.2576   -8.4071 N   0  0  0  0  0  0  0  0  0  0  0  0
   17.2767   70.0999   -7.0266 C   0  0  0  0  0  0  0  0  0  0  0  0
   19.6036   70.7767   -6.8412 C   0  0  0  0  0  0  0  0  0  0  0  0
   19.7601   70.9226   -8.1583 C   0  0  0  0  0  0  0  0  0  0  0  0
   18.6168   70.6514   -9.0543 C   0  0  0  0  0  0  0  0  0  0  0  0
   16.6771   70.0679   -8.9775 H   0  0  0  0  0  0  0  0  0  0  0  0
   22.9091   71.8508   -1.2930 O   0  0  0  0  0  0  0  0  0  0  0  0
   22.1798   71.7156    0.1435 P   0  0  2  0  0  0  0  0  0  0  0  0
   23.2726   70.9269    1.0402 O   0  0  0  0  0  0  0  0  0  0  0  0
   20.8319   71.0567    0.0902 O   0  0  0  0  0  0  0  0  0  0  0  0
   22.1692   73.2145    0.7398 O   0  0  0  0  0  0  0  0  0  0  0  0
   20.4054   74.5933    1.5126 O   0  0  0  0  0  0  0  0  0  0  0  0
   22.9322   77.3585   -0.2300 O   0  0  0  0  0  0  0  0  0  0  0  0
   22.4151   74.7963   -1.5347 O   0  0  0  0  0  0  0  0  0  0  0  0
   22.8041   77.1195    2.6644 O   0  0  0  0  0  0  0  0  0  0  0  0
   22.5945   76.1582    0.4651 C   0  0  2  0  0  0  0  0  0  0  0  0
   21.6914   75.2939   -0.4152 C   0  0  2  0  0  0  0  0  0  0  0  0
   21.8671   76.5469    1.7541 C   0  0  1  0  0  0  0  0  0  0  0  0
   21.1239   74.1141    0.3753 C   0  0  1  0  0  0  0  0  0  0  0  0
   21.2219   75.3334    2.4174 C   0  0  1  0  0  0  0  0  0  0  0  0
   23.3955   77.1363   -1.0530 H   0  0  0  0  0  0  0  0  0  0  0  0
   22.7783   75.5396   -2.0407 H   0  0  0  0  0  0  0  0  0  0  0  0
   23.2220   77.8929    2.2543 H   0  0  0  0  0  0  0  0  0  0  0  0
   19.2730   74.8333    3.6228 O   0  0  0  0  0  0  0  0  0  0  0  0
   20.3283   76.7929    4.1181 O   0  0  0  0  0  0  0  0  0  0  0  0
   20.2534   75.7581    3.4728 C   0  0  0  0  0  0  0  0  0  0  0  0
  1  4  1  0
  1 24  1  0
  1  2  1  6
  1  3  2  0
 25 28  1  0
 25 24  1  0
 25 26  1  1
 25 27  2  0
  6 11  1  0
  6 12  1  0
 29 36  1  0
 29 37  1  0
  9  7  1  1
  7 13  1  0
 10  8  1  1
  8 14  1  0
  4  5  1  0
 36 28  1  1
 33 30  1  6
 30 38  1  0
 34 31  1  6
 31 39  1  0
 35 32  1  1
 32 40  1  0
 41 43  1  0
 15 19  2  0
 42 43  2  0
 16 22  2  0
 12 17  1  6
 17 19  1  0
 17 20  1  0
 18 19  1  0
 18 22  1  0
 18 23  1  0
  9 10  1  0
  9 11  1  0
 10 12  1  0
 11  5  1  6
 33 34  1  0
 33 35  1  0
 34 36  1  0
 35 37  1  0
 37 43  1  1
 20 21  2  0
 21 22  1  0
M  CHG  3   2  -1  26  -1  41  -1
M  END
>  <COMPND>  (70) 
    udp_gluA.pdb 

>  <AUTHOR>  (70) 
    GENERATED BY OPEN BABEL 3.1.1

>  <MASTER>  (70) 
        0    0    0    0    0    0    0    0   56    0   56    0

>  <minimizedAffinity>  (70) 
-7.85921

>  <CNNscore>  (70) 
0.4249487817

>  <CNNaffinity>  (70) 
4.4723157883

>  <CNN_VS>  (70) 
1.9005051851

>  <CNNaffinity_variance>  (70) 
0.0855301246

$$$$
71
     RDKit          3D

 43 45  0  0  0  0  0  0  0  0999 V2000
   22.7142   71.5465   -3.0929 P   0  0  2  0  0  0  0  0  0  0  0  0
   22.8442   69.9711   -2.7464 O   0  0  0  0  0  0  0  0  0  0  0  0
   23.9002   72.1409   -3.7944 O   0  0  0  0  0  0  0  0  0  0  0  0
   22.3228   72.2247   -1.6770 O   0  0  0  0  0  0  0  0  0  0  0  0
   22.9606   71.7556   -0.5033 C   0  0  0  0  0  0  0  0  0  0  0  0
   22.5198   72.5221    1.7318 O   0  0  0  0  0  0  0  0  0  0  0  0
   19.6341   71.9380    1.1637 O   0  0  0  0  0  0  0  0  0  0  0  0
   19.7684   74.6429    0.8453 O   0  0  0  0  0  0  0  0  0  0  0  0
   20.6429   72.4434    0.2889 C   0  0  1  0  0  0  0  0  0  0  0  0
   20.9417   73.8915    0.6147 C   0  0  2  0  0  0  0  0  0  0  0  0
   21.9567   71.7598    0.6423 C   0  0  1  0  0  0  0  0  0  0  0  0
   21.8075   73.7633    1.8564 C   0  0  2  0  0  0  0  0  0  0  0  0
   18.7852   72.3603    0.9570 H   0  0  0  0  0  0  0  0  0  0  0  0
   19.2519   74.6958    0.0253 H   0  0  0  0  0  0  0  0  0  0  0  0
   22.7695   74.7724    4.3125 O   0  0  0  0  0  0  0  0  0  0  0  0
   25.4401   77.8783    2.1994 O   0  0  0  0  0  0  0  0  0  0  0  0
   22.7547   74.8352    1.9771 N   0  0  0  0  0  0  0  0  0  0  0  0
   24.0979   76.3191    3.2578 N   0  0  0  0  0  0  0  0  0  0  0  0
   23.1728   75.2668    3.2581 C   0  0  0  0  0  0  0  0  0  0  0  0
   23.2604   75.4457    0.8358 C   0  0  0  0  0  0  0  0  0  0  0  0
   24.1418   76.4475    0.8514 C   0  0  0  0  0  0  0  0  0  0  0  0
   24.6292   76.9585    2.1494 C   0  0  0  0  0  0  0  0  0  0  0  0
   24.4023   76.6382    4.1381 H   0  0  0  0  0  0  0  0  0  0  0  0
   21.3314   71.6218   -3.9265 O   0  0  0  0  0  0  0  0  0  0  0  0
   20.7567   72.7522   -4.9293 P   0  0  2  0  0  0  0  0  0  0  0  0
   21.9473   72.9257   -6.0123 O   0  0  0  0  0  0  0  0  0  0  0  0
   20.3477   74.0273   -4.2504 O   0  0  0  0  0  0  0  0  0  0  0  0
   19.5725   72.0160   -5.7405 O   0  0  0  0  0  0  0  0  0  0  0  0
   18.8579   69.7768   -5.4501 O   0  0  0  0  0  0  0  0  0  0  0  0
   17.8080   70.4912   -9.3815 O   0  0  0  0  0  0  0  0  0  0  0  0
   20.3710   71.4289   -8.3393 O   0  0  0  0  0  0  0  0  0  0  0  0
   15.7691   70.4578   -7.3096 O   0  0  0  0  0  0  0  0  0  0  0  0
   18.0435   70.8265   -8.0140 C   0  0  2  0  0  0  0  0  0  0  0  0
   19.5011   70.5321   -7.6585 C   0  0  2  0  0  0  0  0  0  0  0  0
   17.1040   69.9810   -7.1512 C   0  0  1  0  0  0  0  0  0  0  0  0
   19.7334   70.6598   -6.1524 C   0  0  1  0  0  0  0  0  0  0  0  0
   17.4791   70.0629   -5.6743 C   0  0  1  0  0  0  0  0  0  0  0  0
   18.3942   71.0163   -9.9489 H   0  0  0  0  0  0  0  0  0  0  0  0
   20.2287   71.3534   -9.2956 H   0  0  0  0  0  0  0  0  0  0  0  0
   15.5180   70.4112   -8.2454 H   0  0  0  0  0  0  0  0  0  0  0  0
   15.5043   69.3590   -4.6225 O   0  0  0  0  0  0  0  0  0  0  0  0
   17.2896   67.9431   -4.5378 O   0  0  0  0  0  0  0  0  0  0  0  0
   16.7837   68.9979   -4.8905 C   0  0  0  0  0  0  0  0  0  0  0  0
  1  4  1  0
  1 24  1  0
  1  2  1  1
  1  3  2  0
 25 28  1  0
 25 24  1  0
 25 26  1  6
 25 27  2  0
  6 11  1  0
  6 12  1  0
 29 36  1  0
 29 37  1  0
  9  7  1  1
  7 13  1  0
 10  8  1  1
  8 14  1  0
  4  5  1  0
 36 28  1  1
 33 30  1  6
 30 38  1  0
 34 31  1  6
 31 39  1  0
 35 32  1  1
 32 40  1  0
 41 43  1  0
 15 19  2  0
 42 43  2  0
 16 22  2  0
 12 17  1  6
 17 19  1  0
 17 20  1  0
 18 19  1  0
 18 22  1  0
 18 23  1  0
  9 10  1  0
  9 11  1  0
 10 12  1  0
 11  5  1  6
 33 34  1  0
 33 35  1  0
 34 36  1  0
 35 37  1  0
 37 43  1  1
 20 21  2  0
 21 22  1  0
M  CHG  3   2  -1  26  -1  41  -1
M  END
>  <COMPND>  (71) 
    udp_gluA.pdb 

>  <AUTHOR>  (71) 
    GENERATED BY OPEN BABEL 3.1.1

>  <MASTER>  (71) 
        0    0    0    0    0    0    0    0   56    0   56    0

>  <minimizedAffinity>  (71) 
-7.80140

>  <CNNscore>  (71) 
0.4013309479

>  <CNNaffinity>  (71) 
4.2009057999

>  <CNN_VS>  (71) 
1.6859534979

>  <CNNaffinity_variance>  (71) 
0.0102643864

$$$$
72
     RDKit          3D

 43 45  0  0  0  0  0  0  0  0999 V2000
   22.8827   72.8905   -4.1173 P   0  0  2  0  0  0  0  0  0  0  0  0
   24.1634   73.3780   -4.9780 O   0  0  0  0  0  0  0  0  0  0  0  0
   22.4296   73.8504   -3.0566 O   0  0  0  0  0  0  0  0  0  0  0  0
   23.3017   71.4164   -3.5982 O   0  0  0  0  0  0  0  0  0  0  0  0
   23.3022   71.1650   -2.2049 C   0  0  0  0  0  0  0  0  0  0  0  0
   21.8388   70.4003   -0.4581 O   0  0  0  0  0  0  0  0  0  0  0  0
   20.0190   69.4614   -2.6486 O   0  0  0  0  0  0  0  0  0  0  0  0
   18.8490   71.7953   -1.8613 O   0  0  0  0  0  0  0  0  0  0  0  0
   20.8478   70.6229   -2.5980 C   0  0  1  0  0  0  0  0  0  0  0  0
   20.2423   71.6590   -1.6748 C   0  0  2  0  0  0  0  0  0  0  0  0
   22.1301   70.2535   -1.8648 C   0  0  1  0  0  0  0  0  0  0  0  0
   20.5976   71.1067   -0.3048 C   0  0  2  0  0  0  0  0  0  0  0  0
   19.1934   69.6728   -3.1126 H   0  0  0  0  0  0  0  0  0  0  0  0
   18.6747   72.1503   -2.7476 H   0  0  0  0  0  0  0  0  0  0  0  0
   18.4747   72.3688    1.0652 O   0  0  0  0  0  0  0  0  0  0  0  0
   21.3656   75.0635    3.4370 O   0  0  0  0  0  0  0  0  0  0  0  0
   20.7671   72.1413    0.6759 N   0  0  0  0  0  0  0  0  0  0  0  0
   19.9165   73.7104    2.2445 N   0  0  0  0  0  0  0  0  0  0  0  0
   19.6345   72.7094    1.3056 C   0  0  0  0  0  0  0  0  0  0  0  0
   22.0431   72.5815    1.0061 C   0  0  0  0  0  0  0  0  0  0  0  0
   22.2961   73.5365    1.9032 C   0  0  0  0  0  0  0  0  0  0  0  0
   21.1680   74.1823    2.6059 C   0  0  0  0  0  0  0  0  0  0  0  0
   19.1438   74.1224    2.6946 H   0  0  0  0  0  0  0  0  0  0  0  0
   21.7793   72.5749   -5.2556 O   0  0  0  0  0  0  0  0  0  0  0  0
   20.4086   73.3382   -5.6458 P   0  0  2  0  0  0  0  0  0  0  0  0
   20.9283   74.7521   -6.2382 O   0  0  0  0  0  0  0  0  0  0  0  0
   19.4302   73.4641   -4.5140 O   0  0  0  0  0  0  0  0  0  0  0  0
   19.8471   72.5401   -6.9304 O   0  0  0  0  0  0  0  0  0  0  0  0
   19.0449   70.5073   -6.0175 O   0  0  0  0  0  0  0  0  0  0  0  0
   17.8142   70.2066   -9.9498 O   0  0  0  0  0  0  0  0  0  0  0  0
   20.4722   71.2326   -9.3044 O   0  0  0  0  0  0  0  0  0  0  0  0
   15.8936   70.8513   -7.8650 O   0  0  0  0  0  0  0  0  0  0  0  0
   18.1404   70.8805   -8.7344 C   0  0  2  0  0  0  0  0  0  0  0  0
   19.5999   70.6045   -8.3720 C   0  0  2  0  0  0  0  0  0  0  0  0
   17.2112   70.3547   -7.6380 C   0  0  1  0  0  0  0  0  0  0  0  0
   19.9209   71.1161   -6.9670 C   0  0  1  0  0  0  0  0  0  0  0  0
   17.6709   70.8057   -6.2546 C   0  0  1  0  0  0  0  0  0  0  0  0
   18.3921   70.5245  -10.6613 H   0  0  0  0  0  0  0  0  0  0  0  0
   20.2739   70.9128  -10.1981 H   0  0  0  0  0  0  0  0  0  0  0  0
   15.5892   70.5714   -8.7424 H   0  0  0  0  0  0  0  0  0  0  0  0
   17.5324   70.2737   -3.9743 O   0  0  0  0  0  0  0  0  0  0  0  0
   16.0200   69.2867   -5.3664 O   0  0  0  0  0  0  0  0  0  0  0  0
   16.9704   70.0329   -5.1848 C   0  0  0  0  0  0  0  0  0  0  0  0
  1  4  1  0
  1 24  1  0
  1  2  1  6
  1  3  2  0
 25 28  1  0
 25 24  1  0
 25 26  1  6
 25 27  2  0
  6 11  1  0
  6 12  1  0
 29 36  1  0
 29 37  1  0
  9  7  1  1
  7 13  1  0
 10  8  1  1
  8 14  1  0
  4  5  1  0
 36 28  1  6
 33 30  1  6
 30 38  1  0
 34 31  1  6
 31 39  1  0
 35 32  1  6
 32 40  1  0
 41 43  1  0
 15 19  2  0
 42 43  2  0
 16 22  2  0
 12 17  1  1
 17 19  1  0
 17 20  1  0
 18 19  1  0
 18 22  1  0
 18 23  1  0
  9 10  1  0
  9 11  1  0
 10 12  1  0
 11  5  1  6
 33 34  1  0
 33 35  1  0
 34 36  1  0
 35 37  1  0
 37 43  1  1
 20 21  2  0
 21 22  1  0
M  CHG  3   2  -1  26  -1  41  -1
M  END
>  <COMPND>  (72) 
    udp_gluA.pdb 

>  <AUTHOR>  (72) 
    GENERATED BY OPEN BABEL 3.1.1

>  <MASTER>  (72) 
        0    0    0    0    0    0    0    0   56    0   56    0

>  <minimizedAffinity>  (72) 
-8.25107

>  <CNNscore>  (72) 
0.3331055045

>  <CNNaffinity>  (72) 
4.0278344154

>  <CNN_VS>  (72) 
1.3416937590

>  <CNNaffinity_variance>  (72) 
0.3327302933

$$$$
73
     RDKit          3D

 43 45  0  0  0  0  0  0  0  0999 V2000
   18.8316   74.2053   -3.4914 P   0  0  2  0  0  0  0  0  0  0  0  0
   18.2887   75.7240   -3.6246 O   0  0  0  0  0  0  0  0  0  0  0  0
   17.7932   73.1412   -3.6941 O   0  0  0  0  0  0  0  0  0  0  0  0
   19.5867   74.1867   -2.0605 O   0  0  0  0  0  0  0  0  0  0  0  0
   19.0110   74.9020   -0.9829 C   0  0  0  0  0  0  0  0  0  0  0  0
   18.9335   72.5880   -0.3374 O   0  0  0  0  0  0  0  0  0  0  0  0
   18.2214   73.5693    2.4051 O   0  0  0  0  0  0  0  0  0  0  0  0
   20.8739   72.9862    2.6510 O   0  0  0  0  0  0  0  0  0  0  0  0
   19.1078   74.1409    1.4427 C   0  0  1  0  0  0  0  0  0  0  0  0
   20.3912   73.3407    1.3720 C   0  0  2  0  0  0  0  0  0  0  0  0
   18.5122   73.9106    0.0605 C   0  0  1  0  0  0  0  0  0  0  0  0
   19.9660   72.1344    0.5524 C   0  0  2  0  0  0  0  0  0  0  0  0
   18.5809   73.7039    3.2964 H   0  0  0  0  0  0  0  0  0  0  0  0
   21.1317   73.7882    3.1330 H   0  0  0  0  0  0  0  0  0  0  0  0
   19.9285   69.5869   -0.6664 O   0  0  0  0  0  0  0  0  0  0  0  0
   24.1621   70.1520   -2.3989 O   0  0  0  0  0  0  0  0  0  0  0  0
   21.0449   71.5908   -0.2230 N   0  0  0  0  0  0  0  0  0  0  0  0
   22.0375   69.8703   -1.5273 N   0  0  0  0  0  0  0  0  0  0  0  0
   20.9252   70.3008   -0.7921 C   0  0  0  0  0  0  0  0  0  0  0  0
   22.2040   72.3329   -0.4145 C   0  0  0  0  0  0  0  0  0  0  0  0
   23.2559   71.9092   -1.1179 C   0  0  0  0  0  0  0  0  0  0  0  0
   23.2122   70.5719   -1.7450 C   0  0  0  0  0  0  0  0  0  0  0  0
   21.9784   68.9745   -1.9314 H   0  0  0  0  0  0  0  0  0  0  0  0
   20.0542   74.1630   -4.5480 O   0  0  0  0  0  0  0  0  0  0  0  0
   20.8499   72.9165   -5.2012 P   0  0  2  0  0  0  0  0  0  0  0  0
   20.9033   71.8387   -3.9946 O   0  0  0  0  0  0  0  0  0  0  0  0
   22.1921   73.2734   -5.7713 O   0  0  0  0  0  0  0  0  0  0  0  0
   19.8166   72.2842   -6.2666 O   0  0  0  0  0  0  0  0  0  0  0  0
   18.8951   70.1458   -5.8342 O   0  0  0  0  0  0  0  0  0  0  0  0
   18.0584   70.6251   -9.8514 O   0  0  0  0  0  0  0  0  0  0  0  0
   20.6547   71.4211   -8.7743 O   0  0  0  0  0  0  0  0  0  0  0  0
   15.9498   70.9359   -7.8745 O   0  0  0  0  0  0  0  0  0  0  0  0
   18.2724   71.0493   -8.5052 C   0  0  2  0  0  0  0  0  0  0  0  0
   19.6838   70.6607   -8.0644 C   0  0  2  0  0  0  0  0  0  0  0  0
   17.2302   70.3607   -7.6211 C   0  0  1  0  0  0  0  0  0  0  0  0
   19.8711   70.8902   -6.5641 C   0  0  1  0  0  0  0  0  0  0  0  0
   17.5565   70.5301   -6.1401 C   0  0  1  0  0  0  0  0  0  0  0  0
   18.7094   71.0500  -10.4318 H   0  0  0  0  0  0  0  0  0  0  0  0
   20.5415   71.2804   -9.7270 H   0  0  0  0  0  0  0  0  0  0  0  0
   15.7301   70.8349   -8.8138 H   0  0  0  0  0  0  0  0  0  0  0  0
   17.4396   69.1916   -4.2175 O   0  0  0  0  0  0  0  0  0  0  0  0
   15.5995   69.2424   -5.5630 O   0  0  0  0  0  0  0  0  0  0  0  0
   16.7406   69.5961   -5.3069 C   0  0  0  0  0  0  0  0  0  0  0  0
  1  4  1  0
  1 24  1  0
  1  2  1  6
  1  3  2  0
 25 28  1  0
 25 24  1  0
 25 26  1  1
 25 27  2  0
  6 11  1  0
  6 12  1  0
 29 36  1  0
 29 37  1  0
  9  7  1  1
  7 13  1  0
 10  8  1  1
  8 14  1  0
  4  5  1  0
 36 28  1  6
 33 30  1  6
 30 38  1  0
 34 31  1  6
 31 39  1  0
 35 32  1  1
 32 40  1  0
 41 43  1  0
 15 19  2  0
 42 43  2  0
 16 22  2  0
 12 17  1  6
 17 19  1  0
 17 20  1  0
 18 19  1  0
 18 22  1  0
 18 23  1  0
  9 10  1  0
  9 11  1  0
 10 12  1  0
 11  5  1  6
 33 34  1  0
 33 35  1  0
 34 36  1  0
 35 37  1  0
 37 43  1  1
 20 21  2  0
 21 22  1  0
M  CHG  3   2  -1  26  -1  41  -1
M  END
>  <COMPND>  (73) 
    udp_gluA.pdb 

>  <AUTHOR>  (73) 
    GENERATED BY OPEN BABEL 3.1.1

>  <MASTER>  (73) 
        0    0    0    0    0    0    0    0   56    0   56    0

>  <minimizedAffinity>  (73) 
-7.88534

>  <CNNscore>  (73) 
0.3316648304

>  <CNNaffinity>  (73) 
4.0061073303

>  <CNN_VS>  (73) 
1.3286849260

>  <CNNaffinity_variance>  (73) 
0.6766018867

$$$$
74
     RDKit          3D

 43 45  0  0  0  0  0  0  0  0999 V2000
   19.1607   74.4977   -3.1579 P   0  0  2  0  0  0  0  0  0  0  0  0
   20.2639   74.8828   -4.2775 O   0  0  0  0  0  0  0  0  0  0  0  0
   17.9378   75.3674   -3.1480 O   0  0  0  0  0  0  0  0  0  0  0  0
   20.0051   74.4570   -1.7783 O   0  0  0  0  0  0  0  0  0  0  0  0
   19.5024   75.1600   -0.6569 C   0  0  0  0  0  0  0  0  0  0  0  0
   19.2038   72.8302   -0.1461 O   0  0  0  0  0  0  0  0  0  0  0  0
   18.5877   73.7140    2.6523 O   0  0  0  0  0  0  0  0  0  0  0  0
   21.1721   72.8670    2.8503 O   0  0  0  0  0  0  0  0  0  0  0  0
   19.5250   74.2533    1.7201 C   0  0  1  0  0  0  0  0  0  0  0  0
   20.7261   73.3398    1.5965 C   0  0  2  0  0  0  0  0  0  0  0  0
   18.9107   74.1617    0.3299 C   0  0  1  0  0  0  0  0  0  0  0  0
   20.1878   72.2292    0.7105 C   0  0  2  0  0  0  0  0  0  0  0  0
   18.9580   73.7616    3.5480 H   0  0  0  0  0  0  0  0  0  0  0  0
   21.5052   73.6113    3.3766 H   0  0  0  0  0  0  0  0  0  0  0  0
   19.9223   69.7523   -0.6202 O   0  0  0  0  0  0  0  0  0  0  0  0
   24.1756   70.0312   -2.3739 O   0  0  0  0  0  0  0  0  0  0  0  0
   21.2101   71.6311   -0.1005 N   0  0  0  0  0  0  0  0  0  0  0  0
   22.0413   69.8931   -1.4916 N   0  0  0  0  0  0  0  0  0  0  0  0
   20.9757   70.3834   -0.7253 C   0  0  0  0  0  0  0  0  0  0  0  0
   22.4273   72.2793   -0.2719 C   0  0  0  0  0  0  0  0  0  0  0  0
   23.4335   71.7995   -1.0055 C   0  0  0  0  0  0  0  0  0  0  0  0
   23.2703   70.5008   -1.6911 C   0  0  0  0  0  0  0  0  0  0  0  0
   21.9023   69.0249   -1.9346 H   0  0  0  0  0  0  0  0  0  0  0  0
   18.8732   72.9350   -3.4542 O   0  0  0  0  0  0  0  0  0  0  0  0
   19.7348   71.8320   -4.2635 P   0  0  2  0  0  0  0  0  0  0  0  0
   18.9815   70.4431   -3.9114 O   0  0  0  0  0  0  0  0  0  0  0  0
   21.2012   71.8390   -3.9419 O   0  0  0  0  0  0  0  0  0  0  0  0
   19.3886   72.1008   -5.8160 O   0  0  0  0  0  0  0  0  0  0  0  0
   17.4441   73.3892   -6.2258 O   0  0  0  0  0  0  0  0  0  0  0  0
   18.3132   71.9548  -10.0014 O   0  0  0  0  0  0  0  0  0  0  0  0
   18.5320   70.2107   -7.6680 O   0  0  0  0  0  0  0  0  0  0  0  0
   18.9034   74.7183   -9.3188 O   0  0  0  0  0  0  0  0  0  0  0  0
   18.6076   72.4135   -8.6819 C   0  0  2  0  0  0  0  0  0  0  0  0
   17.9305   71.5002   -7.6597 C   0  0  2  0  0  0  0  0  0  0  0  0
   18.0797   73.8438   -8.5497 C   0  0  1  0  0  0  0  0  0  0  0  0
   18.0301   72.0872   -6.2510 C   0  0  1  0  0  0  0  0  0  0  0  0
   18.0949   74.3112   -7.0972 C   0  0  1  0  0  0  0  0  0  0  0  0
   18.6395   71.0475  -10.1088 H   0  0  0  0  0  0  0  0  0  0  0  0
   18.4726   69.8324   -8.5590 H   0  0  0  0  0  0  0  0  0  0  0  0
   18.9024   74.4317  -10.2454 H   0  0  0  0  0  0  0  0  0  0  0  0
   18.0380   76.5472   -6.3909 O   0  0  0  0  0  0  0  0  0  0  0  0
   16.1105   75.6759   -7.2420 O   0  0  0  0  0  0  0  0  0  0  0  0
   17.2864   75.5568   -6.9323 C   0  0  0  0  0  0  0  0  0  0  0  0
  1  4  1  0
  1 24  1  0
  1  2  1  6
  1  3  2  0
 25 28  1  0
 25 24  1  0
 25 26  1  1
 25 27  2  0
  6 11  1  0
  6 12  1  0
 29 36  1  0
 29 37  1  0
  9  7  1  1
  7 13  1  0
 10  8  1  1
  8 14  1  0
  4  5  1  0
 36 28  1  6
 33 30  1  6
 30 38  1  0
 34 31  1  1
 31 39  1  0
 35 32  1  6
 32 40  1  0
 41 43  1  0
 15 19  2  0
 42 43  2  0
 16 22  2  0
 12 17  1  6
 17 19  1  0
 17 20  1  0
 18 19  1  0
 18 22  1  0
 18 23  1  0
  9 10  1  0
  9 11  1  0
 10 12  1  0
 11  5  1  6
 33 34  1  0
 33 35  1  0
 34 36  1  0
 35 37  1  0
 37 43  1  6
 20 21  2  0
 21 22  1  0
M  CHG  3   2  -1  26  -1  41  -1
M  END
>  <COMPND>  (74) 
    udp_gluA.pdb 

>  <AUTHOR>  (74) 
    GENERATED BY OPEN BABEL 3.1.1

>  <MASTER>  (74) 
        0    0    0    0    0    0    0    0   56    0   56    0

>  <minimizedAffinity>  (74) 
-6.86834

>  <CNNscore>  (74) 
0.3042215407

>  <CNNaffinity>  (74) 
3.8134398460

>  <CNN_VS>  (74) 
1.1601305008

>  <CNNaffinity_variance>  (74) 
0.4486749172

$$$$
75
     RDKit          3D

 43 45  0  0  0  0  0  0  0  0999 V2000
   21.6804   73.1285   -5.8504 P   0  0  2  0  0  0  0  0  0  0  0  0
   20.8678   74.3730   -6.4904 O   0  0  0  0  0  0  0  0  0  0  0  0
   23.1544   73.1223   -6.1319 O   0  0  0  0  0  0  0  0  0  0  0  0
   20.8626   71.8281   -6.3583 O   0  0  0  0  0  0  0  0  0  0  0  0
   20.3670   71.8165   -7.6844 C   0  0  0  0  0  0  0  0  0  0  0  0
   19.0658   70.1170   -6.5908 O   0  0  0  0  0  0  0  0  0  0  0  0
   17.8500   69.5802   -9.2788 O   0  0  0  0  0  0  0  0  0  0  0  0
   15.9322   71.0758   -8.0452 O   0  0  0  0  0  0  0  0  0  0  0  0
   18.2590   70.8214   -8.7035 C   0  0  1  0  0  0  0  0  0  0  0  0
   17.2730   71.2564   -7.6402 C   0  0  2  0  0  0  0  0  0  0  0  0
   19.5182   70.5678   -7.8859 C   0  0  1  0  0  0  0  0  0  0  0  0
   17.6559   70.3648   -6.4713 C   0  0  2  0  0  0  0  0  0  0  0  0
   17.0469   69.7170   -9.8061 H   0  0  0  0  0  0  0  0  0  0  0  0
   15.7376   71.6654   -8.7912 H   0  0  0  0  0  0  0  0  0  0  0  0
   16.3463   69.0942   -4.3156 O   0  0  0  0  0  0  0  0  0  0  0  0
   16.7148   72.8352   -1.6485 O   0  0  0  0  0  0  0  0  0  0  0  0
   17.3966   70.9836   -5.2021 N   0  0  0  0  0  0  0  0  0  0  0  0
   16.5302   70.9590   -2.9896 N   0  0  0  0  0  0  0  0  0  0  0  0
   16.7315   70.2577   -4.1858 C   0  0  0  0  0  0  0  0  0  0  0  0
   17.8006   72.2933   -4.9736 C   0  0  0  0  0  0  0  0  0  0  0  0
   17.6018   72.9484   -3.8281 C   0  0  0  0  0  0  0  0  0  0  0  0
   16.9132   72.2620   -2.7154 C   0  0  0  0  0  0  0  0  0  0  0  0
   16.0673   70.4751   -2.2679 H   0  0  0  0  0  0  0  0  0  0  0  0
   21.2947   73.2110   -4.2828 O   0  0  0  0  0  0  0  0  0  0  0  0
   21.4912   72.1444   -3.0839 P   0  0  2  0  0  0  0  0  0  0  0  0
   23.0096   71.6249   -3.2960 O   0  0  0  0  0  0  0  0  0  0  0  0
   20.4619   71.0518   -3.0568 O   0  0  0  0  0  0  0  0  0  0  0  0
   21.5511   73.0411   -1.7441 O   0  0  0  0  0  0  0  0  0  0  0  0
   20.4097   73.0919    0.3304 O   0  0  0  0  0  0  0  0  0  0  0  0
   20.6167   77.1085   -0.6138 O   0  0  0  0  0  0  0  0  0  0  0  0
   19.9720   75.1354   -2.6694 O   0  0  0  0  0  0  0  0  0  0  0  0
   22.3788   75.9930    1.4114 O   0  0  0  0  0  0  0  0  0  0  0  0
   21.0582   75.7512   -0.5893 C   0  0  2  0  0  0  0  0  0  0  0  0
   20.0192   74.8626   -1.2737 C   0  0  2  0  0  0  0  0  0  0  0  0
   21.2322   75.3368    0.8736 C   0  0  1  0  0  0  0  0  0  0  0  0
   20.3434   73.3825   -1.0662 C   0  0  1  0  0  0  0  0  0  0  0  0
   21.4260   73.8291    1.0062 C   0  0  1  0  0  0  0  0  0  0  0  0
   20.4992   77.3940   -1.5336 H   0  0  0  0  0  0  0  0  0  0  0  0
   19.7670   76.0730   -2.8084 H   0  0  0  0  0  0  0  0  0  0  0  0
   22.2683   76.9534    1.3329 H   0  0  0  0  0  0  0  0  0  0  0  0
   20.4115   74.2198    3.0846 O   0  0  0  0  0  0  0  0  0  0  0  0
   21.8212   72.4339    2.9347 O   0  0  0  0  0  0  0  0  0  0  0  0
   21.2654   73.3966    2.4273 C   0  0  0  0  0  0  0  0  0  0  0  0
  1  4  1  0
  1 24  1  0
  1  2  1  6
  1  3  2  0
 25 28  1  0
 25 24  1  0
 25 26  1  6
 25 27  2  0
  6 11  1  0
  6 12  1  0
 29 36  1  0
 29 37  1  0
  9  7  1  1
  7 13  1  0
 10  8  1  6
  8 14  1  0
  4  5  1  0
 36 28  1  6
 33 30  1  1
 30 38  1  0
 34 31  1  6
 31 39  1  0
 35 32  1  6
 32 40  1  0
 41 43  1  0
 15 19  2  0
 42 43  2  0
 16 22  2  0
 12 17  1  1
 17 19  1  0
 17 20  1  0
 18 19  1  0
 18 22  1  0
 18 23  1  0
  9 10  1  0
  9 11  1  0
 10 12  1  0
 11  5  1  1
 33 34  1  0
 33 35  1  0
 34 36  1  0
 35 37  1  0
 37 43  1  1
 20 21  2  0
 21 22  1  0
M  CHG  3   2  -1  26  -1  41  -1
M  END
>  <COMPND>  (75) 
    udp_gluA.pdb 

>  <AUTHOR>  (75) 
    GENERATED BY OPEN BABEL 3.1.1

>  <MASTER>  (75) 
        0    0    0    0    0    0    0    0   56    0   56    0

>  <minimizedAffinity>  (75) 
-6.63252

>  <CNNscore>  (75) 
0.3039592505

>  <CNNaffinity>  (75) 
4.0523309708

>  <CNN_VS>  (75) 
1.2317434549

>  <CNNaffinity_variance>  (75) 
0.0382095091

$$$$
76
     RDKit          3D

 43 45  0  0  0  0  0  0  0  0999 V2000
   22.3586   73.7892   -4.9817 P   0  0  2  0  0  0  0  0  0  0  0  0
   23.2354   72.9924   -6.0840 O   0  0  0  0  0  0  0  0  0  0  0  0
   22.8358   75.1788   -4.6764 O   0  0  0  0  0  0  0  0  0  0  0  0
   22.3010   72.7738   -3.7232 O   0  0  0  0  0  0  0  0  0  0  0  0
   22.5039   73.2962   -2.4231 C   0  0  0  0  0  0  0  0  0  0  0  0
   22.7366   72.5993   -0.1345 O   0  0  0  0  0  0  0  0  0  0  0  0
   22.8946   69.8000   -1.1976 O   0  0  0  0  0  0  0  0  0  0  0  0
   20.3183   69.9588   -0.3181 O   0  0  0  0  0  0  0  0  0  0  0  0
   22.1124   70.9003   -1.6624 C   0  0  1  0  0  0  0  0  0  0  0  0
   20.9535   71.1539   -0.7217 C   0  0  2  0  0  0  0  0  0  0  0  0
   22.9399   72.1677   -1.4975 C   0  0  1  0  0  0  0  0  0  0  0  0
   21.6342   71.8723    0.4308 C   0  0  2  0  0  0  0  0  0  0  0  0
   22.3867   68.9786   -1.2930 H   0  0  0  0  0  0  0  0  0  0  0  0
   19.9001   69.5394   -1.0870 H   0  0  0  0  0  0  0  0  0  0  0  0
   21.9828   72.7728    3.0849 O   0  0  0  0  0  0  0  0  0  0  0  0
   18.2105   75.4132    2.8779 O   0  0  0  0  0  0  0  0  0  0  0  0
   20.7581   72.7951    1.0954 N   0  0  0  0  0  0  0  0  0  0  0  0
   20.1031   74.0862    2.9796 N   0  0  0  0  0  0  0  0  0  0  0  0
   21.0226   73.1832    2.4302 C   0  0  0  0  0  0  0  0  0  0  0  0
   19.6530   73.3068    0.4262 C   0  0  0  0  0  0  0  0  0  0  0  0
   18.7854   74.1670    0.9631 C   0  0  0  0  0  0  0  0  0  0  0  0
   18.9891   74.6223    2.3540 C   0  0  0  0  0  0  0  0  0  0  0  0
   20.2652   74.3694    3.9085 H   0  0  0  0  0  0  0  0  0  0  0  0
   20.8601   73.7086   -5.5825 O   0  0  0  0  0  0  0  0  0  0  0  0
   19.4361   74.1291   -4.9430 P   0  0  2  0  0  0  0  0  0  0  0  0
   18.6853   74.8729   -6.1692 O   0  0  0  0  0  0  0  0  0  0  0  0
   19.5419   74.9524   -3.6920 O   0  0  0  0  0  0  0  0  0  0  0  0
   18.6411   72.7370   -4.7631 O   0  0  0  0  0  0  0  0  0  0  0  0
   19.0301   70.5018   -4.0834 O   0  0  0  0  0  0  0  0  0  0  0  0
   17.0755   69.9581   -7.6823 O   0  0  0  0  0  0  0  0  0  0  0  0
   19.1248   72.0219   -7.4071 O   0  0  0  0  0  0  0  0  0  0  0  0
   15.6679   69.5206   -5.1767 O   0  0  0  0  0  0  0  0  0  0  0  0
   17.3887   70.6190   -6.4563 C   0  0  2  0  0  0  0  0  0  0  0  0
   18.8682   71.0044   -6.4461 C   0  0  2  0  0  0  0  0  0  0  0  0
   17.0818   69.6553   -5.3078 C   0  0  1  0  0  0  0  0  0  0  0  0
   19.2936   71.5050   -5.0651 C   0  0  1  0  0  0  0  0  0  0  0  0
   17.6478   70.1659   -3.9858 C   0  0  1  0  0  0  0  0  0  0  0  0
   17.2627   70.5515   -8.4267 H   0  0  0  0  0  0  0  0  0  0  0  0
   18.8569   71.7111   -8.2858 H   0  0  0  0  0  0  0  0  0  0  0  0
   15.2952   69.1964   -6.0114 H   0  0  0  0  0  0  0  0  0  0  0  0
   18.8668   68.9407   -2.4001 O   0  0  0  0  0  0  0  0  0  0  0  0
   16.6586   68.4253   -2.6394 O   0  0  0  0  0  0  0  0  0  0  0  0
   17.6369   69.0872   -2.9521 C   0  0  0  0  0  0  0  0  0  0  0  0
  1  4  1  0
  1 24  1  0
  1  2  1  6
  1  3  2  0
 25 28  1  0
 25 24  1  0
 25 26  1  6
 25 27  2  0
  6 11  1  0
  6 12  1  0
 29 36  1  0
 29 37  1  0
  9  7  1  1
  7 13  1  0
 10  8  1  1
  8 14  1  0
  4  5  1  0
 36 28  1  1
 33 30  1  6
 30 38  1  0
 34 31  1  6
 31 39  1  0
 35 32  1  1
 32 40  1  0
 41 43  1  0
 15 19  2  0
 42 43  2  0
 16 22  2  0
 12 17  1  6
 17 19  1  0
 17 20  1  0
 18 19  1  0
 18 22  1  0
 18 23  1  0
  9 10  1  0
  9 11  1  0
 10 12  1  0
 11  5  1  6
 33 34  1  0
 33 35  1  0
 34 36  1  0
 35 37  1  0
 37 43  1  1
 20 21  2  0
 21 22  1  0
M  CHG  3   2  -1  26  -1  41  -1
M  END
>  <COMPND>  (76) 
    udp_gluA.pdb 

>  <AUTHOR>  (76) 
    GENERATED BY OPEN BABEL 3.1.1

>  <MASTER>  (76) 
        0    0    0    0    0    0    0    0   56    0   56    0

>  <minimizedAffinity>  (76) 
-7.89624

>  <CNNscore>  (76) 
0.2990885973

>  <CNNaffinity>  (76) 
3.9844546318

>  <CNN_VS>  (76) 
1.1917049885

>  <CNNaffinity_variance>  (76) 
0.4898630977

$$$$
77
     RDKit          3D

 43 45  0  0  0  0  0  0  0  0999 V2000
   21.2034   70.4926   -1.8318 P   0  0  2  0  0  0  0  0  0  0  0  0
   20.3378   69.6374   -0.7649 O   0  0  0  0  0  0  0  0  0  0  0  0
   22.2823   69.7224   -2.5350 O   0  0  0  0  0  0  0  0  0  0  0  0
   21.6968   71.7816   -0.9874 O   0  0  0  0  0  0  0  0  0  0  0  0
   22.2551   71.5752    0.2972 C   0  0  0  0  0  0  0  0  0  0  0  0
   21.7409   73.9208    0.1896 O   0  0  0  0  0  0  0  0  0  0  0  0
   22.3238   73.9935    3.1301 O   0  0  0  0  0  0  0  0  0  0  0  0
   19.5981   73.9483    3.0639 O   0  0  0  0  0  0  0  0  0  0  0  0
   21.7062   72.9646    2.3565 C   0  0  1  0  0  0  0  0  0  0  0  0
   20.2949   73.3656    1.9825 C   0  0  2  0  0  0  0  0  0  0  0  0
   22.3949   72.9197    0.9993 C   0  0  1  0  0  0  0  0  0  0  0  0
   20.5359   74.3450    0.8464 C   0  0  2  0  0  0  0  0  0  0  0  0
   21.9004   74.0413    4.0019 H   0  0  0  0  0  0  0  0  0  0  0  0
   19.4694   73.2850    3.7606 H   0  0  0  0  0  0  0  0  0  0  0  0
   19.9332   76.5151   -0.8577 O   0  0  0  0  0  0  0  0  0  0  0  0
   16.3946   74.2659   -2.7717 O   0  0  0  0  0  0  0  0  0  0  0  0
   19.4626   74.3533   -0.1069 N   0  0  0  0  0  0  0  0  0  0  0  0
   18.1707   75.3932   -1.8086 N   0  0  0  0  0  0  0  0  0  0  0  0
   19.2450   75.4943   -0.9148 C   0  0  0  0  0  0  0  0  0  0  0  0
   18.6406   73.2403   -0.2356 C   0  0  0  0  0  0  0  0  0  0  0  0
   17.6206   73.1587   -1.0921 C   0  0  0  0  0  0  0  0  0  0  0  0
   17.3249   74.3081   -1.9723 C   0  0  0  0  0  0  0  0  0  0  0  0
   17.9983   76.1760   -2.3803 H   0  0  0  0  0  0  0  0  0  0  0  0
   20.0711   71.1087   -2.8070 O   0  0  0  0  0  0  0  0  0  0  0  0
   19.1808   70.4202   -3.9676 P   0  0  2  0  0  0  0  0  0  0  0  0
   17.6941   70.3956   -3.3278 O   0  0  0  0  0  0  0  0  0  0  0  0
   19.6837   69.0782   -4.4150 O   0  0  0  0  0  0  0  0  0  0  0  0
   19.1029   71.5296   -5.1362 O   0  0  0  0  0  0  0  0  0  0  0  0
   19.6730   70.7793   -7.3090 O   0  0  0  0  0  0  0  0  0  0  0  0
   19.5770   74.8763   -7.8325 O   0  0  0  0  0  0  0  0  0  0  0  0
   20.7934   73.7168   -5.4429 O   0  0  0  0  0  0  0  0  0  0  0  0
   17.3946   73.2278   -8.8178 O   0  0  0  0  0  0  0  0  0  0  0  0
   19.1906   73.6260   -7.2619 C   0  0  2  0  0  0  0  0  0  0  0  0
   20.4000   72.9742   -6.5910 C   0  0  2  0  0  0  0  0  0  0  0  0
   18.6625   72.7351   -8.3885 C   0  0  1  0  0  0  0  0  0  0  0  0
   20.0845   71.5379   -6.1711 C   0  0  1  0  0  0  0  0  0  0  0  0
   18.4930   71.2914   -7.9240 C   0  0  1  0  0  0  0  0  0  0  0  0
   19.9161   75.4592   -7.1350 H   0  0  0  0  0  0  0  0  0  0  0  0
   20.9949   74.6293   -5.7020 H   0  0  0  0  0  0  0  0  0  0  0  0
   17.4886   74.1460   -9.1158 H   0  0  0  0  0  0  0  0  0  0  0  0
   18.7408   70.9606  -10.2329 O   0  0  0  0  0  0  0  0  0  0  0  0
   17.8134   69.2586   -9.0319 O   0  0  0  0  0  0  0  0  0  0  0  0
   18.2993   70.3782   -9.0906 C   0  0  0  0  0  0  0  0  0  0  0  0
  1  4  1  0
  1 24  1  0
  1  2  1  1
  1  3  2  0
 25 28  1  0
 25 24  1  0
 25 26  1  1
 25 27  2  0
  6 11  1  0
  6 12  1  0
 29 36  1  0
 29 37  1  0
  9  7  1  1
  7 13  1  0
 10  8  1  1
  8 14  1  0
  4  5  1  0
 36 28  1  1
 33 30  1  6
 30 38  1  0
 34 31  1  1
 31 39  1  0
 35 32  1  1
 32 40  1  0
 41 43  1  0
 15 19  2  0
 42 43  2  0
 16 22  2  0
 12 17  1  6
 17 19  1  0
 17 20  1  0
 18 19  1  0
 18 22  1  0
 18 23  1  0
  9 10  1  0
  9 11  1  0
 10 12  1  0
 11  5  1  6
 33 34  1  0
 33 35  1  0
 34 36  1  0
 35 37  1  0
 37 43  1  6
 20 21  2  0
 21 22  1  0
M  CHG  3   2  -1  26  -1  41  -1
M  END
>  <COMPND>  (77) 
    udp_gluA.pdb 

>  <AUTHOR>  (77) 
    GENERATED BY OPEN BABEL 3.1.1

>  <MASTER>  (77) 
        0    0    0    0    0    0    0    0   56    0   56    0

>  <minimizedAffinity>  (77) 
-7.04953

>  <CNNscore>  (77) 
0.2939067483

>  <CNNaffinity>  (77) 
3.8860583305

>  <CNN_VS>  (77) 
1.1421387196

>  <CNNaffinity_variance>  (77) 
0.2019550502

$$$$
78
     RDKit          3D

 43 45  0  0  0  0  0  0  0  0999 V2000
   19.8110   69.7696   -2.5472 P   0  0  2  0  0  0  0  0  0  0  0  0
   19.7343   69.2800   -1.0066 O   0  0  0  0  0  0  0  0  0  0  0  0
   20.2358   68.7151   -3.5266 O   0  0  0  0  0  0  0  0  0  0  0  0
   20.7430   71.0909   -2.4890 O   0  0  0  0  0  0  0  0  0  0  0  0
   21.5930   71.3676   -3.5869 C   0  0  0  0  0  0  0  0  0  0  0  0
   23.1081   72.5540   -2.1465 O   0  0  0  0  0  0  0  0  0  0  0  0
   24.9155   70.1744   -2.3970 O   0  0  0  0  0  0  0  0  0  0  0  0
   23.7581   69.7894    0.0419 O   0  0  0  0  0  0  0  0  0  0  0  0
   23.4899   70.2239   -2.3354 C   0  0  1  0  0  0  0  0  0  0  0  0
   23.0365   70.5264   -0.9229 C   0  0  2  0  0  0  0  0  0  0  0  0
   23.0298   71.4636   -3.0901 C   0  0  1  0  0  0  0  0  0  0  0  0
   23.2873   72.0215   -0.8245 C   0  0  2  0  0  0  0  0  0  0  0  0
   25.2330   69.3904   -1.9215 H   0  0  0  0  0  0  0  0  0  0  0  0
   23.5643   68.8441   -0.0620 H   0  0  0  0  0  0  0  0  0  0  0  0
   23.5426   74.6949    0.0495 O   0  0  0  0  0  0  0  0  0  0  0  0
   19.7171   74.4168    2.6052 O   0  0  0  0  0  0  0  0  0  0  0  0
   22.3722   72.6730    0.0693 N   0  0  0  0  0  0  0  0  0  0  0  0
   21.6376   74.5535    1.3224 N   0  0  0  0  0  0  0  0  0  0  0  0
   22.5915   74.0190    0.4464 C   0  0  0  0  0  0  0  0  0  0  0  0
   21.2720   71.9812    0.5612 C   0  0  0  0  0  0  0  0  0  0  0  0
   20.3713   72.5041    1.3954 C   0  0  0  0  0  0  0  0  0  0  0  0
   20.5276   73.9049    1.8389 C   0  0  0  0  0  0  0  0  0  0  0  0
   21.7702   75.4886    1.6007 H   0  0  0  0  0  0  0  0  0  0  0  0
   18.3359   70.3766   -2.8089 O   0  0  0  0  0  0  0  0  0  0  0  0
   17.1361   69.8737   -3.7687 P   0  0  2  0  0  0  0  0  0  0  0  0
   15.8094   70.4207   -3.0197 O   0  0  0  0  0  0  0  0  0  0  0  0
   17.1342   68.3951   -4.0288 O   0  0  0  0  0  0  0  0  0  0  0  0
   17.2615   70.7863   -5.0931 O   0  0  0  0  0  0  0  0  0  0  0  0
   18.6962   70.6075   -6.9689 O   0  0  0  0  0  0  0  0  0  0  0  0
   18.2767   74.7025   -6.6187 O   0  0  0  0  0  0  0  0  0  0  0  0
   18.6469   73.0433   -4.2429 O   0  0  0  0  0  0  0  0  0  0  0  0
   16.8548   73.2633   -8.7062 O   0  0  0  0  0  0  0  0  0  0  0  0
   17.8691   73.3378   -6.5220 C   0  0  2  0  0  0  0  0  0  0  0  0
   18.8118   72.5876   -5.5808 C   0  0  2  0  0  0  0  0  0  0  0  0
   17.9213   72.7281   -7.9247 C   0  0  1  0  0  0  0  0  0  0  0  0
   18.5497   71.0817   -5.6298 C   0  0  1  0  0  0  0  0  0  0  0  0
   17.7775   71.2097   -7.8779 C   0  0  1  0  0  0  0  0  0  0  0  0
   18.2514   75.1108   -5.7390 H   0  0  0  0  0  0  0  0  0  0  0  0
   18.8114   73.9982   -4.2045 H   0  0  0  0  0  0  0  0  0  0  0  0
   16.9346   74.2292   -8.7438 H   0  0  0  0  0  0  0  0  0  0  0  0
   17.8346   69.2830   -9.2143 O   0  0  0  0  0  0  0  0  0  0  0  0
   18.6774   71.1999  -10.1166 O   0  0  0  0  0  0  0  0  0  0  0  0
   18.1547   70.6005   -9.1890 C   0  0  0  0  0  0  0  0  0  0  0  0
  1  4  1  0
  1 24  1  0
  1  2  1  1
  1  3  2  0
 25 28  1  0
 25 24  1  0
 25 26  1  1
 25 27  2  0
  6 11  1  0
  6 12  1  0
 29 36  1  0
 29 37  1  0
  9  7  1  1
  7 13  1  0
 10  8  1  1
  8 14  1  0
  4  5  1  0
 36 28  1  6
 33 30  1  6
 30 38  1  0
 34 31  1  1
 31 39  1  0
 35 32  1  6
 32 40  1  0
 41 43  1  0
 15 19  2  0
 42 43  2  0
 16 22  2  0
 12 17  1  1
 17 19  1  0
 17 20  1  0
 18 19  1  0
 18 22  1  0
 18 23  1  0
  9 10  1  0
  9 11  1  0
 10 12  1  0
 11  5  1  1
 33 34  1  0
 33 35  1  0
 34 36  1  0
 35 37  1  0
 37 43  1  6
 20 21  2  0
 21 22  1  0
M  CHG  3   2  -1  26  -1  41  -1
M  END
>  <COMPND>  (78) 
    udp_gluA.pdb 

>  <AUTHOR>  (78) 
    GENERATED BY OPEN BABEL 3.1.1

>  <MASTER>  (78) 
        0    0    0    0    0    0    0    0   56    0   56    0

>  <minimizedAffinity>  (78) 
-8.11775

>  <CNNscore>  (78) 
0.2702034712

>  <CNNaffinity>  (78) 
4.0569581985

>  <CNN_VS>  (78) 
1.0962041616

>  <CNNaffinity_variance>  (78) 
0.1462488919

$$$$
79
     RDKit          3D

 43 45  0  0  0  0  0  0  0  0999 V2000
   22.7520   70.9206   -2.8018 P   0  0  2  0  0  0  0  0  0  0  0  0
   24.3272   70.8065   -2.4491 O   0  0  0  0  0  0  0  0  0  0  0  0
   22.0335   69.6089   -2.9239 O   0  0  0  0  0  0  0  0  0  0  0  0
   22.7151   71.8668   -4.1138 O   0  0  0  0  0  0  0  0  0  0  0  0
   21.6765   72.8220   -4.2295 C   0  0  0  0  0  0  0  0  0  0  0  0
   20.7716   71.7237   -6.1667 O   0  0  0  0  0  0  0  0  0  0  0  0
   20.3334   74.4697   -7.2889 O   0  0  0  0  0  0  0  0  0  0  0  0
   17.8457   73.7816   -6.4091 O   0  0  0  0  0  0  0  0  0  0  0  0
   20.2199   74.0161   -5.9398 C   0  0  1  0  0  0  0  0  0  0  0  0
   18.9590   73.1962   -5.7668 C   0  0  2  0  0  0  0  0  0  0  0  0
   21.3093   72.9798   -5.6994 C   0  0  1  0  0  0  0  0  0  0  0  0
   19.3592   71.8677   -6.3856 C   0  0  2  0  0  0  0  0  0  0  0  0
   19.6475   75.1328   -7.4662 H   0  0  0  0  0  0  0  0  0  0  0  0
   17.6303   74.6243   -5.9785 H   0  0  0  0  0  0  0  0  0  0  0  0
   16.8070   70.9480   -7.1711 O   0  0  0  0  0  0  0  0  0  0  0  0
   16.8418   67.5936   -4.0103 O   0  0  0  0  0  0  0  0  0  0  0  0
   18.6779   70.7560   -5.7849 N   0  0  0  0  0  0  0  0  0  0  0  0
   16.8263   69.2789   -5.5954 N   0  0  0  0  0  0  0  0  0  0  0  0
   17.3983   70.3754   -6.2538 C   0  0  0  0  0  0  0  0  0  0  0  0
   19.2770   70.0549   -4.7454 C   0  0  0  0  0  0  0  0  0  0  0  0
   18.7194   69.0116   -4.1278 C   0  0  0  0  0  0  0  0  0  0  0  0
   17.3828   68.5502   -4.5566 C   0  0  0  0  0  0  0  0  0  0  0  0
   15.9347   68.9966   -5.9030 H   0  0  0  0  0  0  0  0  0  0  0  0
   22.1889   71.8910   -1.6380 O   0  0  0  0  0  0  0  0  0  0  0  0
   21.5984   71.5566   -0.1707 P   0  0  2  0  0  0  0  0  0  0  0  0
   22.8856   70.9796    0.6234 O   0  0  0  0  0  0  0  0  0  0  0  0
   20.4130   70.6354   -0.1791 O   0  0  0  0  0  0  0  0  0  0  0  0
   21.3209   72.9987    0.4971 O   0  0  0  0  0  0  0  0  0  0  0  0
   22.4941   75.0301    0.1713 O   0  0  0  0  0  0  0  0  0  0  0  0
   21.1633   75.4424    4.0607 O   0  0  0  0  0  0  0  0  0  0  0  0
   22.2304   72.8895    3.1234 O   0  0  0  0  0  0  0  0  0  0  0  0
   19.8596   76.9005    1.9101 O   0  0  0  0  0  0  0  0  0  0  0  0
   21.1085   74.9995    2.7046 C   0  0  2  0  0  0  0  0  0  0  0  0
   22.3193   74.1150    2.4058 C   0  0  2  0  0  0  0  0  0  0  0  0
   21.1170   76.2358    1.8027 C   0  0  1  0  0  0  0  0  0  0  0  0
   22.4186   73.8105    0.9104 C   0  0  1  0  0  0  0  0  0  0  0  0
   21.3459   75.8581    0.3420 C   0  0  1  0  0  0  0  0  0  0  0  0
   21.1591   74.6736    4.6525 H   0  0  0  0  0  0  0  0  0  0  0  0
   22.1667   73.0752    4.0730 H   0  0  0  0  0  0  0  0  0  0  0  0
   19.7016   77.1461    2.8350 H   0  0  0  0  0  0  0  0  0  0  0  0
   23.0057   77.1040   -0.7509 O   0  0  0  0  0  0  0  0  0  0  0  0
   20.8733   77.9065   -0.8422 O   0  0  0  0  0  0  0  0  0  0  0  0
   21.6791   77.0658   -0.4722 C   0  0  0  0  0  0  0  0  0  0  0  0
  1  4  1  0
  1 24  1  0
  1  2  1  1
  1  3  2  0
 25 28  1  0
 25 24  1  0
 25 26  1  1
 25 27  2  0
  6 11  1  0
  6 12  1  0
 29 36  1  0
 29 37  1  0
  9  7  1  6
  7 13  1  0
 10  8  1  6
  8 14  1  0
  4  5  1  0
 36 28  1  6
 33 30  1  1
 30 38  1  0
 34 31  1  1
 31 39  1  0
 35 32  1  6
 32 40  1  0
 41 43  1  0
 15 19  2  0
 42 43  2  0
 16 22  2  0
 12 17  1  1
 17 19  1  0
 17 20  1  0
 18 19  1  0
 18 22  1  0
 18 23  1  0
  9 10  1  0
  9 11  1  0
 10 12  1  0
 11  5  1  1
 33 34  1  0
 33 35  1  0
 34 36  1  0
 35 37  1  0
 37 43  1  6
 20 21  2  0
 21 22  1  0
M  CHG  3   2  -1  26  -1  41  -1
M  END
>  <COMPND>  (79) 
    udp_gluA.pdb 

>  <AUTHOR>  (79) 
    GENERATED BY OPEN BABEL 3.1.1

>  <MASTER>  (79) 
        0    0    0    0    0    0    0    0   56    0   56    0

>  <minimizedAffinity>  (79) 
-7.12259

>  <CNNscore>  (79) 
0.2603614032

>  <CNNaffinity>  (79) 
4.0838379860

>  <CNN_VS>  (79) 
1.0632737875

>  <CNNaffinity_variance>  (79) 
0.0547729656

$$$$
80
     RDKit          3D

 43 45  0  0  0  0  0  0  0  0999 V2000
   18.4855   74.6939   -1.2965 P   0  0  2  0  0  0  0  0  0  0  0  0
   17.1826   75.5058   -0.7847 O   0  0  0  0  0  0  0  0  0  0  0  0
   19.2378   75.3461   -2.4193 O   0  0  0  0  0  0  0  0  0  0  0  0
   17.9231   73.2070   -1.5980 O   0  0  0  0  0  0  0  0  0  0  0  0
   18.1130   72.6615   -2.8906 C   0  0  0  0  0  0  0  0  0  0  0  0
   17.1920   70.8229   -4.1352 O   0  0  0  0  0  0  0  0  0  0  0  0
   18.5384   69.0381   -2.1369 O   0  0  0  0  0  0  0  0  0  0  0  0
   20.2316   68.9265   -4.2715 O   0  0  0  0  0  0  0  0  0  0  0  0
   18.9832   70.2799   -2.6834 C   0  0  1  0  0  0  0  0  0  0  0  0
   19.4444   70.0882   -4.1127 C   0  0  2  0  0  0  0  0  0  0  0  0
   17.7667   71.1785   -2.8590 C   0  0  1  0  0  0  0  0  0  0  0  0
   18.1252   70.0075   -4.8617 C   0  0  2  0  0  0  0  0  0  0  0  0
   19.2984   68.4471   -2.0157 H   0  0  0  0  0  0  0  0  0  0  0  0
   21.0602   69.0272   -3.7763 H   0  0  0  0  0  0  0  0  0  0  0  0
   16.0736   69.8102   -6.7926 O   0  0  0  0  0  0  0  0  0  0  0  0
   18.6279   71.9317   -9.9893 O   0  0  0  0  0  0  0  0  0  0  0  0
   18.2274   70.5000   -6.2063 N   0  0  0  0  0  0  0  0  0  0  0  0
   17.3481   70.8661   -8.3832 N   0  0  0  0  0  0  0  0  0  0  0  0
   17.1386   70.3503   -7.0975 C   0  0  0  0  0  0  0  0  0  0  0  0
   19.3946   71.1241   -6.6295 C   0  0  0  0  0  0  0  0  0  0  0  0
   19.5794   71.6108   -7.8582 C   0  0  0  0  0  0  0  0  0  0  0  0
   18.4910   71.4943   -8.8508 C   0  0  0  0  0  0  0  0  0  0  0  0
   16.6049   70.7718   -9.0220 H   0  0  0  0  0  0  0  0  0  0  0  0
   19.3420   74.4904    0.0591 O   0  0  0  0  0  0  0  0  0  0  0  0
   20.3792   73.3295    0.4952 P   0  0  2  0  0  0  0  0  0  0  0  0
   19.4078   72.1084    0.9260 O   0  0  0  0  0  0  0  0  0  0  0  0
   21.3580   73.7445    1.5552 O   0  0  0  0  0  0  0  0  0  0  0  0
   21.0549   72.8440   -0.8869 O   0  0  0  0  0  0  0  0  0  0  0  0
   23.3274   72.2108   -0.6772 O   0  0  0  0  0  0  0  0  0  0  0  0
   22.8256   72.1960   -4.7779 O   0  0  0  0  0  0  0  0  0  0  0  0
   21.6743   74.3333   -3.1529 O   0  0  0  0  0  0  0  0  0  0  0  0
   22.9302   69.6880   -3.3116 O   0  0  0  0  0  0  0  0  0  0  0  0
   22.4272   72.0420   -3.4157 C   0  0  2  0  0  0  0  0  0  0  0  0
   22.6059   73.3687   -2.6772 C   0  0  2  0  0  0  0  0  0  0  0  0
   23.3062   70.9594   -2.7854 C   0  0  1  0  0  0  0  0  0  0  0  0
   22.4099   73.1873   -1.1713 C   0  0  1  0  0  0  0  0  0  0  0  0
   23.1469   70.9259   -1.2682 C   0  0  1  0  0  0  0  0  0  0  0  0
   22.2806   72.8792   -5.1991 H   0  0  0  0  0  0  0  0  0  0  0  0
   21.7928   74.4532   -4.1078 H   0  0  0  0  0  0  0  0  0  0  0  0
   23.0269   69.6961   -4.2767 H   0  0  0  0  0  0  0  0  0  0  0  0
   24.0648   70.0527    0.7057 O   0  0  0  0  0  0  0  0  0  0  0  0
   25.1419   69.5691   -1.2450 O   0  0  0  0  0  0  0  0  0  0  0  0
   24.2303   70.1120   -0.6389 C   0  0  0  0  0  0  0  0  0  0  0  0
  1  4  1  0
  1 24  1  0
  1  2  1  1
  1  3  2  0
 25 28  1  0
 25 24  1  0
 25 26  1  1
 25 27  2  0
  6 11  1  0
  6 12  1  0
 29 36  1  0
 29 37  1  0
  9  7  1  6
  7 13  1  0
 10  8  1  1
  8 14  1  0
  4  5  1  0
 36 28  1  6
 33 30  1  6
 30 38  1  0
 34 31  1  6
 31 39  1  0
 35 32  1  6
 32 40  1  0
 41 43  1  0
 15 19  2  0
 42 43  2  0
 16 22  2  0
 12 17  1  6
 17 19  1  0
 17 20  1  0
 18 19  1  0
 18 22  1  0
 18 23  1  0
  9 10  1  0
  9 11  1  0
 10 12  1  0
 11  5  1  6
 33 34  1  0
 33 35  1  0
 34 36  1  0
 35 37  1  0
 37 43  1  1
 20 21  2  0
 21 22  1  0
M  CHG  3   2  -1  26  -1  41  -1
M  END
>  <COMPND>  (80) 
    udp_gluA.pdb 

>  <AUTHOR>  (80) 
    GENERATED BY OPEN BABEL 3.1.1

>  <MASTER>  (80) 
        0    0    0    0    0    0    0    0   56    0   56    0

>  <minimizedAffinity>  (80) 
-7.87641

>  <CNNscore>  (80) 
0.2552073896

>  <CNNaffinity>  (80) 
4.2719888687

>  <CNN_VS>  (80) 
1.0902431011

>  <CNNaffinity_variance>  (80) 
0.2714813352

$$$$
81
     RDKit          3D

 43 45  0  0  0  0  0  0  0  0999 V2000
   22.4127   72.9564   -4.0843 P   0  0  2  0  0  0  0  0  0  0  0  0
   23.5857   72.9902   -5.1986 O   0  0  0  0  0  0  0  0  0  0  0  0
   22.4054   74.1199   -3.1367 O   0  0  0  0  0  0  0  0  0  0  0  0
   22.5657   71.4967   -3.4033 O   0  0  0  0  0  0  0  0  0  0  0  0
   23.3868   71.3679   -2.2572 C   0  0  0  0  0  0  0  0  0  0  0  0
   23.0011   71.0780    0.0976 O   0  0  0  0  0  0  0  0  0  0  0  0
   20.5461   69.5431   -0.6827 O   0  0  0  0  0  0  0  0  0  0  0  0
   19.5323   71.9795    0.0044 O   0  0  0  0  0  0  0  0  0  0  0  0
   21.1287   70.6909   -1.3006 C   0  0  1  0  0  0  0  0  0  0  0  0
   20.8624   71.9266   -0.4674 C   0  0  2  0  0  0  0  0  0  0  0  0
   22.6424   70.5601   -1.2019 C   0  0  1  0  0  0  0  0  0  0  0  0
   21.8753   71.7747    0.6546 C   0  0  2  0  0  0  0  0  0  0  0  0
   19.5790   69.6040   -0.7334 H   0  0  0  0  0  0  0  0  0  0  0  0
   18.9262   72.0767   -0.7473 H   0  0  0  0  0  0  0  0  0  0  0  0
   21.8435   72.4839    3.3882 O   0  0  0  0  0  0  0  0  0  0  0  0
   23.5944   76.6569    2.5137 O   0  0  0  0  0  0  0  0  0  0  0  0
   22.3171   73.0401    1.1690 N   0  0  0  0  0  0  0  0  0  0  0  0
   22.7146   74.5620    2.9500 N   0  0  0  0  0  0  0  0  0  0  0  0
   22.2593   73.2959    2.5594 C   0  0  0  0  0  0  0  0  0  0  0  0
   22.8023   74.0105    0.3008 C   0  0  0  0  0  0  0  0  0  0  0  0
   23.2329   75.2127    0.6879 C   0  0  0  0  0  0  0  0  0  0  0  0
   23.2052   75.5602    2.1238 C   0  0  0  0  0  0  0  0  0  0  0  0
   22.6821   74.7640    3.9130 H   0  0  0  0  0  0  0  0  0  0  0  0
   21.0716   72.8038   -4.9736 O   0  0  0  0  0  0  0  0  0  0  0  0
   19.6137   72.2116   -4.6027 P   0  0  2  0  0  0  0  0  0  0  0  0
   19.3325   72.8176   -3.1283 O   0  0  0  0  0  0  0  0  0  0  0  0
   19.5176   70.7156   -4.6851 O   0  0  0  0  0  0  0  0  0  0  0  0
   18.5927   73.0023   -5.5695 O   0  0  0  0  0  0  0  0  0  0  0  0
   19.2091   72.1656   -7.6977 O   0  0  0  0  0  0  0  0  0  0  0  0
   15.7438   74.2349   -8.5794 O   0  0  0  0  0  0  0  0  0  0  0  0
   17.7181   75.3655   -6.7469 O   0  0  0  0  0  0  0  0  0  0  0  0
   15.7159   71.3309   -8.4482 O   0  0  0  0  0  0  0  0  0  0  0  0
   16.6271   73.4564   -7.7722 C   0  0  2  0  0  0  0  0  0  0  0  0
   17.9351   74.2198   -7.5623 C   0  0  2  0  0  0  0  0  0  0  0  0
   16.8922   72.1361   -8.4991 C   0  0  1  0  0  0  0  0  0  0  0  0
   18.9879   73.3296   -6.9005 C   0  0  1  0  0  0  0  0  0  0  0  0
   18.0395   71.3650   -7.8530 C   0  0  1  0  0  0  0  0  0  0  0  0
   15.5610   75.0790   -8.1375 H   0  0  0  0  0  0  0  0  0  0  0  0
   17.0509   75.9347   -7.1608 H   0  0  0  0  0  0  0  0  0  0  0  0
   14.9780   71.8103   -8.8562 H   0  0  0  0  0  0  0  0  0  0  0  0
   19.8420   70.3459   -8.9548 O   0  0  0  0  0  0  0  0  0  0  0  0
   17.7872   69.3942   -9.2219 O   0  0  0  0  0  0  0  0  0  0  0  0
   18.5050   70.2605   -8.7450 C   0  0  0  0  0  0  0  0  0  0  0  0
  1  4  1  0
  1 24  1  0
  1  2  1  6
  1  3  2  0
 25 28  1  0
 25 24  1  0
 25 26  1  1
 25 27  2  0
  6 11  1  0
  6 12  1  0
 29 36  1  0
 29 37  1  0
  9  7  1  1
  7 13  1  0
 10  8  1  1
  8 14  1  0
  4  5  1  0
 36 28  1  1
 33 30  1  6
 30 38  1  0
 34 31  1  1
 31 39  1  0
 35 32  1  1
 32 40  1  0
 41 43  1  0
 15 19  2  0
 42 43  2  0
 16 22  2  0
 12 17  1  6
 17 19  1  0
 17 20  1  0
 18 19  1  0
 18 22  1  0
 18 23  1  0
  9 10  1  0
  9 11  1  0
 10 12  1  0
 11  5  1  6
 33 34  1  0
 33 35  1  0
 34 36  1  0
 35 37  1  0
 37 43  1  6
 20 21  2  0
 21 22  1  0
M  CHG  3   2  -1  26  -1  41  -1
M  END
>  <COMPND>  (81) 
    udp_gluA.pdb 

>  <AUTHOR>  (81) 
    GENERATED BY OPEN BABEL 3.1.1

>  <MASTER>  (81) 
        0    0    0    0    0    0    0    0   56    0   56    0

>  <minimizedAffinity>  (81) 
-7.71547

>  <CNNscore>  (81) 
0.5513741970

>  <CNNaffinity>  (81) 
4.1968469620

>  <CNN_VS>  (81) 
2.3140330315

>  <CNNaffinity_variance>  (81) 
0.0779377446

$$$$
82
     RDKit          3D

 43 45  0  0  0  0  0  0  0  0999 V2000
   23.3913   71.0544   -2.8827 P   0  0  2  0  0  0  0  0  0  0  0  0
   24.0116   72.1618   -3.8867 O   0  0  0  0  0  0  0  0  0  0  0  0
   24.2574   69.8505   -2.6543 O   0  0  0  0  0  0  0  0  0  0  0  0
   21.9220   70.7576   -3.4918 O   0  0  0  0  0  0  0  0  0  0  0  0
   21.1458   71.8502   -3.9481 C   0  0  0  0  0  0  0  0  0  0  0  0
   18.8330   71.9430   -4.5959 O   0  0  0  0  0  0  0  0  0  0  0  0
   18.2763   70.2883   -2.1580 O   0  0  0  0  0  0  0  0  0  0  0  0
   18.2003   68.4408   -4.1622 O   0  0  0  0  0  0  0  0  0  0  0  0
   19.3933   70.2417   -3.0460 C   0  0  1  0  0  0  0  0  0  0  0  0
   18.9959   69.5917   -4.3544 C   0  0  2  0  0  0  0  0  0  0  0  0
   19.7077   71.6666   -3.4807 C   0  0  1  0  0  0  0  0  0  0  0  0
   18.2428   70.7140   -5.0481 C   0  0  2  0  0  0  0  0  0  0  0  0
   18.0566   69.3891   -1.8667 H   0  0  0  0  0  0  0  0  0  0  0  0
   18.7248   67.7558   -3.7176 H   0  0  0  0  0  0  0  0  0  0  0  0
   16.1299   69.9735   -6.7698 O   0  0  0  0  0  0  0  0  0  0  0  0
   18.7645   70.4771  -10.5180 O   0  0  0  0  0  0  0  0  0  0  0  0
   18.3491   70.6433   -6.4780 N   0  0  0  0  0  0  0  0  0  0  0  0
   17.4444   70.2241   -8.6349 N   0  0  0  0  0  0  0  0  0  0  0  0
   17.2277   70.2601   -7.2511 C   0  0  0  0  0  0  0  0  0  0  0  0
   19.5524   70.9529   -7.1002 C   0  0  0  0  0  0  0  0  0  0  0  0
   19.7437   70.9141   -8.4203 C   0  0  0  0  0  0  0  0  0  0  0  0
   18.6227   70.5225   -9.2997 C   0  0  0  0  0  0  0  0  0  0  0  0
   16.6788   69.9581   -9.1938 H   0  0  0  0  0  0  0  0  0  0  0  0
   23.0664   71.9125   -1.5520 O   0  0  0  0  0  0  0  0  0  0  0  0
   22.4930   71.4588   -0.1101 P   0  0  2  0  0  0  0  0  0  0  0  0
   23.7155   70.6070    0.5227 O   0  0  0  0  0  0  0  0  0  0  0  0
   21.1892   70.7171   -0.1716 O   0  0  0  0  0  0  0  0  0  0  0  0
   22.4503   72.8171    0.7592 O   0  0  0  0  0  0  0  0  0  0  0  0
   20.4475   73.8234   -0.0059 O   0  0  0  0  0  0  0  0  0  0  0  0
   21.4275   76.2346    3.2025 O   0  0  0  0  0  0  0  0  0  0  0  0
   23.4930   75.3279    1.3461 O   0  0  0  0  0  0  0  0  0  0  0  0
   19.2882   74.2813    3.4450 O   0  0  0  0  0  0  0  0  0  0  0  0
   21.3602   75.0172    2.4599 C   0  0  2  0  0  0  0  0  0  0  0  0
   22.0937   75.1881    1.1294 C   0  0  2  0  0  0  0  0  0  0  0  0
   19.8846   74.6928    2.2164 C   0  0  1  0  0  0  0  0  0  0  0  0
   21.8491   73.9892    0.2120 C   0  0  1  0  0  0  0  0  0  0  0  0
   19.7220   73.5705    1.1953 C   0  0  1  0  0  0  0  0  0  0  0  0
   22.3561   76.4609    3.3692 H   0  0  0  0  0  0  0  0  0  0  0  0
   23.6554   76.0867    1.9278 H   0  0  0  0  0  0  0  0  0  0  0  0
   19.3849   74.9867    4.1037 H   0  0  0  0  0  0  0  0  0  0  0  0
   18.2449   72.8829   -0.4919 O   0  0  0  0  0  0  0  0  0  0  0  0
   17.3356   73.8967    1.3369 O   0  0  0  0  0  0  0  0  0  0  0  0
   18.3077   73.4853    0.7214 C   0  0  0  0  0  0  0  0  0  0  0  0
  1  4  1  0
  1 24  1  0
  1  2  1  6
  1  3  2  0
 25 28  1  0
 25 24  1  0
 25 26  1  1
 25 27  2  0
  6 11  1  0
  6 12  1  0
 29 36  1  0
 29 37  1  0
  9  7  1  1
  7 13  1  0
 10  8  1  1
  8 14  1  0
  4  5  1  0
 36 28  1  1
 33 30  1  1
 30 38  1  0
 34 31  1  1
 31 39  1  0
 35 32  1  1
 32 40  1  0
 41 43  1  0
 15 19  2  0
 42 43  2  0
 16 22  2  0
 12 17  1  6
 17 19  1  0
 17 20  1  0
 18 19  1  0
 18 22  1  0
 18 23  1  0
  9 10  1  0
  9 11  1  0
 10 12  1  0
 11  5  1  6
 33 34  1  0
 33 35  1  0
 34 36  1  0
 35 37  1  0
 37 43  1  6
 20 21  2  0
 21 22  1  0
M  CHG  3   2  -1  26  -1  41  -1
M  END
>  <COMPND>  (82) 
    udp_gluA.pdb 

>  <AUTHOR>  (82) 
    GENERATED BY OPEN BABEL 3.1.1

>  <MASTER>  (82) 
        0    0    0    0    0    0    0    0   56    0   56    0

>  <minimizedAffinity>  (82) 
-7.70156

>  <CNNscore>  (82) 
0.5359984040

>  <CNNaffinity>  (82) 
4.4969553947

>  <CNN_VS>  (82) 
2.4103608131

>  <CNNaffinity_variance>  (82) 
0.0630900338

$$$$
83
     RDKit          3D

 43 45  0  0  0  0  0  0  0  0999 V2000
   22.6702   70.7079   -2.1283 P   0  0  2  0  0  0  0  0  0  0  0  0
   23.9963   70.0013   -2.7294 O   0  0  0  0  0  0  0  0  0  0  0  0
   22.1524   70.1047   -0.8556 O   0  0  0  0  0  0  0  0  0  0  0  0
   21.6366   70.7168   -3.3731 O   0  0  0  0  0  0  0  0  0  0  0  0
   20.7859   69.5995   -3.5535 C   0  0  0  0  0  0  0  0  0  0  0  0
   18.8525   70.8586   -4.2277 O   0  0  0  0  0  0  0  0  0  0  0  0
   17.3102   69.1792   -2.2804 O   0  0  0  0  0  0  0  0  0  0  0  0
   16.7135   68.0161   -4.6735 O   0  0  0  0  0  0  0  0  0  0  0  0
   18.4055   68.8132   -3.1199 C   0  0  1  0  0  0  0  0  0  0  0  0
   17.9469   68.6943   -4.5579 C   0  0  2  0  0  0  0  0  0  0  0  0
   19.3615   69.9963   -3.1872 C   0  0  1  0  0  0  0  0  0  0  0  0
   17.8555   70.1504   -4.9812 C   0  0  2  0  0  0  0  0  0  0  0  0
   16.6856   68.4388   -2.2220 H   0  0  0  0  0  0  0  0  0  0  0  0
   16.8242   67.0937   -4.3927 H   0  0  0  0  0  0  0  0  0  0  0  0
   15.8702   70.0873   -6.9889 O   0  0  0  0  0  0  0  0  0  0  0  0
   18.9586   70.8556  -10.3229 O   0  0  0  0  0  0  0  0  0  0  0  0
   18.1131   70.3310   -6.3819 N   0  0  0  0  0  0  0  0  0  0  0  0
   17.4104   70.4690   -8.6476 N   0  0  0  0  0  0  0  0  0  0  0  0
   17.0447   70.2809   -7.3082 C   0  0  0  0  0  0  0  0  0  0  0  0
   19.4107   70.5564   -6.8251 C   0  0  0  0  0  0  0  0  0  0  0  0
   19.7437   70.7340   -8.1051 C   0  0  0  0  0  0  0  0  0  0  0  0
   18.6867   70.6955   -9.1369 C   0  0  0  0  0  0  0  0  0  0  0  0
   16.6839   70.4363   -9.3113 H   0  0  0  0  0  0  0  0  0  0  0  0
   23.1083   72.2593   -2.0087 O   0  0  0  0  0  0  0  0  0  0  0  0
   22.2248   73.6004   -1.8229 P   0  0  2  0  0  0  0  0  0  0  0  0
   23.0794   74.4607   -0.7507 O   0  0  0  0  0  0  0  0  0  0  0  0
   20.8007   73.3487   -1.4196 O   0  0  0  0  0  0  0  0  0  0  0  0
   22.3953   74.3989   -3.2142 O   0  0  0  0  0  0  0  0  0  0  0  0
   21.8291   76.5008   -4.1471 O   0  0  0  0  0  0  0  0  0  0  0  0
   20.6103   73.9053   -7.1213 O   0  0  0  0  0  0  0  0  0  0  0  0
   20.0951   73.2864   -4.3131 O   0  0  0  0  0  0  0  0  0  0  0  0
   23.0590   75.4398   -7.4370 O   0  0  0  0  0  0  0  0  0  0  0  0
   21.4235   74.3567   -6.0383 C   0  0  2  0  0  0  0  0  0  0  0  0
   20.5580   74.5439   -4.7919 C   0  0  2  0  0  0  0  0  0  0  0  0
   22.0613   75.6861   -6.4479 C   0  0  1  0  0  0  0  0  0  0  0  0
   21.3431   75.2417   -3.6804 C   0  0  1  0  0  0  0  0  0  0  0  0
   22.7160   76.3801   -5.2570 C   0  0  1  0  0  0  0  0  0  0  0  0
   20.1943   73.0616   -6.8838 H   0  0  0  0  0  0  0  0  0  0  0  0
   19.5963   72.8380   -5.0134 H   0  0  0  0  0  0  0  0  0  0  0  0
   22.6554   74.9981   -8.2005 H   0  0  0  0  0  0  0  0  0  0  0  0
   22.7119   78.0840   -6.8690 O   0  0  0  0  0  0  0  0  0  0  0  0
   23.5301   78.6061   -4.8057 O   0  0  0  0  0  0  0  0  0  0  0  0
   23.0398   77.8016   -5.5838 C   0  0  0  0  0  0  0  0  0  0  0  0
  1  4  1  0
  1 24  1  0
  1  2  1  6
  1  3  2  0
 25 28  1  0
 25 24  1  0
 25 26  1  1
 25 27  2  0
  6 11  1  0
  6 12  1  0
 29 36  1  0
 29 37  1  0
  9  7  1  1
  7 13  1  0
 10  8  1  1
  8 14  1  0
  4  5  1  0
 36 28  1  6
 33 30  1  6
 30 38  1  0
 34 31  1  1
 31 39  1  0
 35 32  1  6
 32 40  1  0
 41 43  1  0
 15 19  2  0
 42 43  2  0
 16 22  2  0
 12 17  1  6
 17 19  1  0
 17 20  1  0
 18 19  1  0
 18 22  1  0
 18 23  1  0
  9 10  1  0
  9 11  1  0
 10 12  1  0
 11  5  1  6
 33 34  1  0
 33 35  1  0
 34 36  1  0
 35 37  1  0
 37 43  1  6
 20 21  2  0
 21 22  1  0
M  CHG  3   2  -1  26  -1  41  -1
M  END
>  <COMPND>  (83) 
    udp_gluA.pdb 

>  <AUTHOR>  (83) 
    GENERATED BY OPEN BABEL 3.1.1

>  <MASTER>  (83) 
        0    0    0    0    0    0    0    0   56    0   56    0

>  <minimizedAffinity>  (83) 
-6.75488

>  <CNNscore>  (83) 
0.5288731456

>  <CNNaffinity>  (83) 
4.4030451775

>  <CNN_VS>  (83) 
2.3286523819

>  <CNNaffinity_variance>  (83) 
0.1466880143

$$$$
84
     RDKit          3D

 43 45  0  0  0  0  0  0  0  0999 V2000
   22.1039   72.7700   -3.2166 P   0  0  2  0  0  0  0  0  0  0  0  0
   22.5833   74.2578   -2.7978 O   0  0  0  0  0  0  0  0  0  0  0  0
   22.1060   72.4955   -4.6919 O   0  0  0  0  0  0  0  0  0  0  0  0
   20.6779   72.5972   -2.4719 O   0  0  0  0  0  0  0  0  0  0  0  0
   19.4954   72.6963   -3.2441 C   0  0  0  0  0  0  0  0  0  0  0  0
   17.8049   71.2376   -4.1340 O   0  0  0  0  0  0  0  0  0  0  0  0
   18.5985   69.3090   -1.9794 O   0  0  0  0  0  0  0  0  0  0  0  0
   19.8571   68.2981   -4.1772 O   0  0  0  0  0  0  0  0  0  0  0  0
   19.4136   70.2050   -2.7352 C   0  0  1  0  0  0  0  0  0  0  0  0
   19.5949   69.6854   -4.1457 C   0  0  2  0  0  0  0  0  0  0  0  0
   18.6181   71.4825   -2.9661 C   0  0  1  0  0  0  0  0  0  0  0  0
   18.2653   70.0440   -4.7873 C   0  0  2  0  0  0  0  0  0  0  0  0
   19.0856   68.4851   -1.8194 H   0  0  0  0  0  0  0  0  0  0  0  0
   20.7141   68.1214   -3.7574 H   0  0  0  0  0  0  0  0  0  0  0  0
   16.1421   69.8275   -6.6370 O   0  0  0  0  0  0  0  0  0  0  0  0
   18.8479   71.0477  -10.1632 O   0  0  0  0  0  0  0  0  0  0  0  0
   18.3872   70.2994   -6.1947 N   0  0  0  0  0  0  0  0  0  0  0  0
   17.4920   70.4344   -8.3916 N   0  0  0  0  0  0  0  0  0  0  0  0
   17.2589   70.1616   -7.0373 C   0  0  0  0  0  0  0  0  0  0  0  0
   19.6123   70.6830   -6.7265 C   0  0  0  0  0  0  0  0  0  0  0  0
   19.8191   70.9397   -8.0195 C   0  0  0  0  0  0  0  0  0  0  0  0
   18.6922   70.8183   -8.9676 C   0  0  0  0  0  0  0  0  0  0  0  0
   16.7219   70.3433   -8.9982 H   0  0  0  0  0  0  0  0  0  0  0  0
   23.0827   71.8167   -2.3530 O   0  0  0  0  0  0  0  0  0  0  0  0
   22.9271   71.2058   -0.8643 P   0  0  2  0  0  0  0  0  0  0  0  0
   24.4561   70.9047   -0.4263 O   0  0  0  0  0  0  0  0  0  0  0  0
   22.0138   70.0173   -0.7788 O   0  0  0  0  0  0  0  0  0  0  0  0
   22.4816   72.4595    0.0480 O   0  0  0  0  0  0  0  0  0  0  0  0
   22.5289   73.0623    2.3379 O   0  0  0  0  0  0  0  0  0  0  0  0
   18.6900   74.1460    1.2624 O   0  0  0  0  0  0  0  0  0  0  0  0
   19.8394   71.6327    0.3156 O   0  0  0  0  0  0  0  0  0  0  0  0
   20.7358   76.1809    1.6161 O   0  0  0  0  0  0  0  0  0  0  0  0
   20.0866   73.9275    1.0631 C   0  0  2  0  0  0  0  0  0  0  0  0
   20.4166   72.4572    1.3215 C   0  0  2  0  0  0  0  0  0  0  0  0
   20.8498   74.8240    2.0407 C   0  0  1  0  0  0  0  0  0  0  0  0
   21.9290   72.2315    1.3432 C   0  0  1  0  0  0  0  0  0  0  0  0
   22.3290   74.4535    2.0978 C   0  0  1  0  0  0  0  0  0  0  0  0
   18.1846   73.5866    0.6517 H   0  0  0  0  0  0  0  0  0  0  0  0
   18.8798   71.7710    0.2960 H   0  0  0  0  0  0  0  0  0  0  0  0
   19.7990   76.4294    1.5754 H   0  0  0  0  0  0  0  0  0  0  0  0
   22.0956   75.3149    4.2669 O   0  0  0  0  0  0  0  0  0  0  0  0
   24.1772   75.3837    3.3389 O   0  0  0  0  0  0  0  0  0  0  0  0
   22.9916   75.0953    3.2731 C   0  0  0  0  0  0  0  0  0  0  0  0
  1  4  1  0
  1 24  1  0
  1  2  1  6
  1  3  2  0
 25 28  1  0
 25 24  1  0
 25 26  1  1
 25 27  2  0
  6 11  1  0
  6 12  1  0
 29 36  1  0
 29 37  1  0
  9  7  1  1
  7 13  1  0
 10  8  1  1
  8 14  1  0
  4  5  1  0
 36 28  1  6
 33 30  1  1
 30 38  1  0
 34 31  1  6
 31 39  1  0
 35 32  1  6
 32 40  1  0
 41 43  1  0
 15 19  2  0
 42 43  2  0
 16 22  2  0
 12 17  1  6
 17 19  1  0
 17 20  1  0
 18 19  1  0
 18 22  1  0
 18 23  1  0
  9 10  1  0
  9 11  1  0
 10 12  1  0
 11  5  1  6
 33 34  1  0
 33 35  1  0
 34 36  1  0
 35 37  1  0
 37 43  1  1
 20 21  2  0
 21 22  1  0
M  CHG  3   2  -1  26  -1  41  -1
M  END
>  <COMPND>  (84) 
    udp_gluA.pdb 

>  <AUTHOR>  (84) 
    GENERATED BY OPEN BABEL 3.1.1

>  <MASTER>  (84) 
        0    0    0    0    0    0    0    0   56    0   56    0

>  <minimizedAffinity>  (84) 
-7.67636

>  <CNNscore>  (84) 
0.5077764392

>  <CNNaffinity>  (84) 
4.3088979721

>  <CNN_VS>  (84) 
2.1879568100

>  <CNNaffinity_variance>  (84) 
0.0895390064

$$$$
85
     RDKit          3D

 43 45  0  0  0  0  0  0  0  0999 V2000
   19.3810   69.9698   -2.2720 P   0  0  2  0  0  0  0  0  0  0  0  0
   19.8484   69.3420   -0.8556 O   0  0  0  0  0  0  0  0  0  0  0  0
   20.4815   70.1617   -3.2740 O   0  0  0  0  0  0  0  0  0  0  0  0
   18.5690   71.3060   -1.8557 O   0  0  0  0  0  0  0  0  0  0  0  0
   18.8940   72.5234   -2.5013 C   0  0  0  0  0  0  0  0  0  0  0  0
   20.0637   72.9430   -0.4437 O   0  0  0  0  0  0  0  0  0  0  0  0
   19.8487   75.8537   -1.1316 O   0  0  0  0  0  0  0  0  0  0  0  0
   22.4156   75.2626   -1.8372 O   0  0  0  0  0  0  0  0  0  0  0  0
   20.0476   74.7335   -1.9943 C   0  0  1  0  0  0  0  0  0  0  0  0
   21.4654   74.2182   -1.8658 C   0  0  2  0  0  0  0  0  0  0  0  0
   19.2343   73.5686   -1.4468 C   0  0  1  0  0  0  0  0  0  0  0  0
   21.4036   73.4478   -0.5580 C   0  0  2  0  0  0  0  0  0  0  0  0
   20.3587   76.6106   -1.4612 H   0  0  0  0  0  0  0  0  0  0  0  0
   22.4169   75.7222   -2.6920 H   0  0  0  0  0  0  0  0  0  0  0  0
   22.1726   72.0767    1.7884 O   0  0  0  0  0  0  0  0  0  0  0  0
   24.9348   69.2314   -0.5607 O   0  0  0  0  0  0  0  0  0  0  0  0
   22.3222   72.3449   -0.5277 N   0  0  0  0  0  0  0  0  0  0  0  0
   23.5484   70.6615    0.6163 N   0  0  0  0  0  0  0  0  0  0  0  0
   22.6417   71.7260    0.7039 C   0  0  0  0  0  0  0  0  0  0  0  0
   22.8944   71.8864   -1.7080 C   0  0  0  0  0  0  0  0  0  0  0  0
   23.7570   70.8704   -1.7758 C   0  0  0  0  0  0  0  0  0  0  0  0
   24.1444   70.1698   -0.5338 C   0  0  0  0  0  0  0  0  0  0  0  0
   23.7877   70.2161    1.4611 H   0  0  0  0  0  0  0  0  0  0  0  0
   18.2074   68.9640   -2.7452 O   0  0  0  0  0  0  0  0  0  0  0  0
   17.1726   69.0486   -3.9844 P   0  0  2  0  0  0  0  0  0  0  0  0
   16.1805   70.2538   -3.5563 O   0  0  0  0  0  0  0  0  0  0  0  0
   16.4764   67.7551   -4.2947 O   0  0  0  0  0  0  0  0  0  0  0  0
   18.0418   69.6502   -5.2031 O   0  0  0  0  0  0  0  0  0  0  0  0
   18.9479   71.7852   -5.6823 O   0  0  0  0  0  0  0  0  0  0  0  0
   17.6878   70.5491   -9.4176 O   0  0  0  0  0  0  0  0  0  0  0  0
   16.0208   70.0852   -7.0638 O   0  0  0  0  0  0  0  0  0  0  0  0
   20.5147   70.5004   -8.7412 O   0  0  0  0  0  0  0  0  0  0  0  0
   18.1967   70.3857   -8.0938 C   0  0  2  0  0  0  0  0  0  0  0  0
   17.1771   70.9142   -7.0847 C   0  0  2  0  0  0  0  0  0  0  0  0
   19.5054   71.1722   -7.9898 C   0  0  1  0  0  0  0  0  0  0  0  0
   17.7764   70.9685   -5.6787 C   0  0  1  0  0  0  0  0  0  0  0  0
   19.9717   71.2887   -6.5416 C   0  0  1  0  0  0  0  0  0  0  0  0
   16.8560   70.0579   -9.5073 H   0  0  0  0  0  0  0  0  0  0  0  0
   15.6355   70.0460   -7.9528 H   0  0  0  0  0  0  0  0  0  0  0  0
   20.2301   70.4196   -9.6650 H   0  0  0  0  0  0  0  0  0  0  0  0
   20.6543   73.3188   -5.5853 O   0  0  0  0  0  0  0  0  0  0  0  0
   22.1339   72.2708   -6.9679 O   0  0  0  0  0  0  0  0  0  0  0  0
   21.0470   72.3179   -6.4117 C   0  0  0  0  0  0  0  0  0  0  0  0
  1  4  1  0
  1 24  1  0
  1  2  1  1
  1  3  2  0
 25 28  1  0
 25 24  1  0
 25 26  1  1
 25 27  2  0
  6 11  1  0
  6 12  1  0
 29 36  1  0
 29 37  1  0
  9  7  1  1
  7 13  1  0
 10  8  1  1
  8 14  1  0
  4  5  1  0
 36 28  1  6
 33 30  1  6
 30 38  1  0
 34 31  1  1
 31 39  1  0
 35 32  1  6
 32 40  1  0
 41 43  1  0
 15 19  2  0
 42 43  2  0
 16 22  2  0
 12 17  1  6
 17 19  1  0
 17 20  1  0
 18 19  1  0
 18 22  1  0
 18 23  1  0
  9 10  1  0
  9 11  1  0
 10 12  1  0
 11  5  1  6
 33 34  1  0
 33 35  1  0
 34 36  1  0
 35 37  1  0
 37 43  1  6
 20 21  2  0
 21 22  1  0
M  CHG  3   2  -1  26  -1  41  -1
M  END
>  <COMPND>  (85) 
    udp_gluA.pdb 

>  <AUTHOR>  (85) 
    GENERATED BY OPEN BABEL 3.1.1

>  <MASTER>  (85) 
        0    0    0    0    0    0    0    0   56    0   56    0

>  <minimizedAffinity>  (85) 
-8.16892

>  <CNNscore>  (85) 
0.4879381359

>  <CNNaffinity>  (85) 
4.4529433250

>  <CNN_VS>  (85) 
2.1727609634

>  <CNNaffinity_variance>  (85) 
0.2094978988

$$$$
86
     RDKit          3D

 43 45  0  0  0  0  0  0  0  0999 V2000
   20.9396   70.3403   -1.4623 P   0  0  2  0  0  0  0  0  0  0  0  0
   22.4695   69.9016   -1.1692 O   0  0  0  0  0  0  0  0  0  0  0  0
   19.8974   69.4184   -0.9004 O   0  0  0  0  0  0  0  0  0  0  0  0
   20.8973   70.5547   -3.0655 O   0  0  0  0  0  0  0  0  0  0  0  0
   21.1056   71.8575   -3.5791 C   0  0  0  0  0  0  0  0  0  0  0  0
   20.0937   70.7678   -5.4675 O   0  0  0  0  0  0  0  0  0  0  0  0
   20.9312   73.1643   -7.0633 O   0  0  0  0  0  0  0  0  0  0  0  0
   18.2850   73.6440   -6.6120 O   0  0  0  0  0  0  0  0  0  0  0  0
   20.4755   73.0927   -5.7121 C   0  0  1  0  0  0  0  0  0  0  0  0
   18.9816   72.8495   -5.6750 C   0  0  2  0  0  0  0  0  0  0  0  0
   21.0223   71.8106   -5.0994 C   0  0  1  0  0  0  0  0  0  0  0  0
   18.8957   71.3655   -5.9881 C   0  0  2  0  0  0  0  0  0  0  0  0
   20.5944   73.9755   -7.4759 H   0  0  0  0  0  0  0  0  0  0  0  0
   18.3697   74.5798   -6.3688 H   0  0  0  0  0  0  0  0  0  0  0  0
   16.8496   70.0335   -7.4079 O   0  0  0  0  0  0  0  0  0  0  0  0
   14.5774   69.0065   -3.5315 O   0  0  0  0  0  0  0  0  0  0  0  0
   17.7578   70.7410   -5.3749 N   0  0  0  0  0  0  0  0  0  0  0  0
   15.7194   69.5241   -5.4759 N   0  0  0  0  0  0  0  0  0  0  0  0
   16.7868   70.0983   -6.1787 C   0  0  0  0  0  0  0  0  0  0  0  0
   17.6130   70.7674   -3.9931 C   0  0  0  0  0  0  0  0  0  0  0  0
   16.5900   70.2155   -3.3375 C   0  0  0  0  0  0  0  0  0  0  0  0
   15.5316   69.5251   -4.1032 C   0  0  0  0  0  0  0  0  0  0  0  0
   15.0297   69.0728   -6.0143 H   0  0  0  0  0  0  0  0  0  0  0  0
   20.8799   71.8516   -0.8918 O   0  0  0  0  0  0  0  0  0  0  0  0
   19.6621   72.6936   -0.2424 P   0  0  2  0  0  0  0  0  0  0  0  0
   19.3572   71.9001    1.1352 O   0  0  0  0  0  0  0  0  0  0  0  0
   18.4713   72.8486   -1.1433 O   0  0  0  0  0  0  0  0  0  0  0  0
   20.3311   74.0840    0.2282 O   0  0  0  0  0  0  0  0  0  0  0  0
   22.5798   74.8271    0.2529 O   0  0  0  0  0  0  0  0  0  0  0  0
   21.0683   76.6083    3.6604 O   0  0  0  0  0  0  0  0  0  0  0  0
   20.3737   73.8488    2.9993 O   0  0  0  0  0  0  0  0  0  0  0  0
   21.5202   78.1912    1.2643 O   0  0  0  0  0  0  0  0  0  0  0  0
   21.0222   76.0892    2.3313 C   0  0  2  0  0  0  0  0  0  0  0  0
   21.3885   74.6049    2.3487 C   0  0  2  0  0  0  0  0  0  0  0  0
   22.0240   76.8746    1.4819 C   0  0  1  0  0  0  0  0  0  0  0  0
   21.5741   74.0705    0.9279 C   0  0  1  0  0  0  0  0  0  0  0  0
   22.2489   76.2084    0.1276 C   0  0  1  0  0  0  0  0  0  0  0  0
   20.4396   76.1242    4.2187 H   0  0  0  0  0  0  0  0  0  0  0  0
   20.2504   74.1827    3.9013 H   0  0  0  0  0  0  0  0  0  0  0  0
   21.3725   78.6262    2.1186 H   0  0  0  0  0  0  0  0  0  0  0  0
   24.2424   77.4260    0.3393 O   0  0  0  0  0  0  0  0  0  0  0  0
   23.6937   76.6833   -1.7455 O   0  0  0  0  0  0  0  0  0  0  0  0
   23.4501   76.7807   -0.5521 C   0  0  0  0  0  0  0  0  0  0  0  0
  1  4  1  0
  1 24  1  0
  1  2  1  6
  1  3  2  0
 25 28  1  0
 25 24  1  0
 25 26  1  1
 25 27  2  0
  6 11  1  0
  6 12  1  0
 29 36  1  0
 29 37  1  0
  9  7  1  6
  7 13  1  0
 10  8  1  6
  8 14  1  0
  4  5  1  0
 36 28  1  6
 33 30  1  1
 30 38  1  0
 34 31  1  6
 31 39  1  0
 35 32  1  6
 32 40  1  0
 41 43  1  0
 15 19  2  0
 42 43  2  0
 16 22  2  0
 12 17  1  1
 17 19  1  0
 17 20  1  0
 18 19  1  0
 18 22  1  0
 18 23  1  0
  9 10  1  0
  9 11  1  0
 10 12  1  0
 11  5  1  1
 33 34  1  0
 33 35  1  0
 34 36  1  0
 35 37  1  0
 37 43  1  1
 20 21  2  0
 21 22  1  0
M  CHG  3   2  -1  26  -1  41  -1
M  END
>  <COMPND>  (86) 
    udp_gluA.pdb 

>  <AUTHOR>  (86) 
    GENERATED BY OPEN BABEL 3.1.1

>  <MASTER>  (86) 
        0    0    0    0    0    0    0    0   56    0   56    0

>  <minimizedAffinity>  (86) 
-7.07260

>  <CNNscore>  (86) 
0.4352848232

>  <CNNaffinity>  (86) 
4.2268953323

>  <CNN_VS>  (86) 
1.8399033546

>  <CNNaffinity_variance>  (86) 
0.0951843783

$$$$
87
     RDKit          3D

 43 45  0  0  0  0  0  0  0  0999 V2000
   21.0472   71.8862   -2.4521 P   0  0  2  0  0  0  0  0  0  0  0  0
   21.6405   72.5882   -3.7840 O   0  0  0  0  0  0  0  0  0  0  0  0
   21.8567   70.7368   -1.9274 O   0  0  0  0  0  0  0  0  0  0  0  0
   19.5143   71.5457   -2.8423 O   0  0  0  0  0  0  0  0  0  0  0  0
   18.9724   70.3034   -2.4331 C   0  0  0  0  0  0  0  0  0  0  0  0
   17.3073   70.9853   -4.0269 O   0  0  0  0  0  0  0  0  0  0  0  0
   15.5552   68.8715   -2.8213 O   0  0  0  0  0  0  0  0  0  0  0  0
   16.4587   67.6702   -5.0965 O   0  0  0  0  0  0  0  0  0  0  0  0
   16.9664   68.8601   -3.0377 C   0  0  1  0  0  0  0  0  0  0  0  0
   17.2696   68.6657   -4.5083 C   0  0  2  0  0  0  0  0  0  0  0  0
   17.4914   70.2673   -2.7875 C   0  0  1  0  0  0  0  0  0  0  0  0
   16.9975   70.0499   -5.0721 C   0  0  2  0  0  0  0  0  0  0  0  0
   15.1970   67.9828   -2.9752 H   0  0  0  0  0  0  0  0  0  0  0  0
   16.6700   66.8078   -4.7044 H   0  0  0  0  0  0  0  0  0  0  0  0
   15.9956   70.4085   -7.6882 O   0  0  0  0  0  0  0  0  0  0  0  0
   20.2086   71.1758   -9.3928 O   0  0  0  0  0  0  0  0  0  0  0  0
   17.8103   70.3443   -6.2182 N   0  0  0  0  0  0  0  0  0  0  0  0
   18.0950   70.7893   -8.5349 N   0  0  0  0  0  0  0  0  0  0  0  0
   17.2078   70.5055   -7.4882 C   0  0  0  0  0  0  0  0  0  0  0  0
   19.1869   70.4721   -6.0778 C   0  0  0  0  0  0  0  0  0  0  0  0
   20.0196   70.7430   -7.0848 C   0  0  0  0  0  0  0  0  0  0  0  0
   19.4708   70.9253   -8.4446 C   0  0  0  0  0  0  0  0  0  0  0  0
   17.6990   70.9037   -9.4290 H   0  0  0  0  0  0  0  0  0  0  0  0
   20.8941   73.1258   -1.4260 O   0  0  0  0  0  0  0  0  0  0  0  0
   19.9917   73.2972   -0.0956 P   0  0  2  0  0  0  0  0  0  0  0  0
   19.9527   71.8007    0.5202 O   0  0  0  0  0  0  0  0  0  0  0  0
   18.6390   73.8999   -0.3425 O   0  0  0  0  0  0  0  0  0  0  0  0
   20.9210   74.1331    0.9244 O   0  0  0  0  0  0  0  0  0  0  0  0
   23.1202   74.8758    0.4540 O   0  0  0  0  0  0  0  0  0  0  0  0
   23.1577   74.6978    4.5813 O   0  0  0  0  0  0  0  0  0  0  0  0
   21.8886   72.5803    3.0192 O   0  0  0  0  0  0  0  0  0  0  0  0
   22.9719   77.2666    3.2332 O   0  0  0  0  0  0  0  0  0  0  0  0
   22.5792   74.8902    3.2905 C   0  0  2  0  0  0  0  0  0  0  0  0
   22.7117   73.6046    2.4735 C   0  0  2  0  0  0  0  0  0  0  0  0
   23.3254   76.0364    2.6039 C   0  0  1  0  0  0  0  0  0  0  0  0
   22.3139   73.8395    1.0156 C   0  0  1  0  0  0  0  0  0  0  0  0
   22.9682   76.1257    1.1231 C   0  0  1  0  0  0  0  0  0  0  0  0
   22.6994   73.9738    5.0366 H   0  0  0  0  0  0  0  0  0  0  0  0
   22.1354   72.4263    3.9443 H   0  0  0  0  0  0  0  0  0  0  0  0
   23.1940   77.2229    4.1764 H   0  0  0  0  0  0  0  0  0  0  0  0
   23.8812   76.7789   -0.9364 O   0  0  0  0  0  0  0  0  0  0  0  0
   24.6553   77.8395    0.9278 O   0  0  0  0  0  0  0  0  0  0  0  0
   23.9276   77.0128    0.3986 C   0  0  0  0  0  0  0  0  0  0  0  0
  1  4  1  0
  1 24  1  0
  1  2  1  6
  1  3  2  0
 25 28  1  0
 25 24  1  0
 25 26  1  1
 25 27  2  0
  6 11  1  0
  6 12  1  0
 29 36  1  0
 29 37  1  0
  9  7  1  6
  7 13  1  0
 10  8  1  6
  8 14  1  0
  4  5  1  0
 36 28  1  1
 33 30  1  1
 30 38  1  0
 34 31  1  1
 31 39  1  0
 35 32  1  1
 32 40  1  0
 41 43  1  0
 15 19  2  0
 42 43  2  0
 16 22  2  0
 12 17  1  6
 17 19  1  0
 17 20  1  0
 18 19  1  0
 18 22  1  0
 18 23  1  0
  9 10  1  0
  9 11  1  0
 10 12  1  0
 11  5  1  6
 33 34  1  0
 33 35  1  0
 34 36  1  0
 35 37  1  0
 37 43  1  6
 20 21  2  0
 21 22  1  0
M  CHG  3   2  -1  26  -1  41  -1
M  END
>  <COMPND>  (87) 
    udp_gluA.pdb 

>  <AUTHOR>  (87) 
    GENERATED BY OPEN BABEL 3.1.1

>  <MASTER>  (87) 
        0    0    0    0    0    0    0    0   56    0   56    0

>  <minimizedAffinity>  (87) 
-6.82543

>  <CNNscore>  (87) 
0.4285793006

>  <CNNaffinity>  (87) 
4.2693028450

>  <CNN_VS>  (87) 
1.8297348022

>  <CNNaffinity_variance>  (87) 
0.0092560994

$$$$
88
     RDKit          3D

 43 45  0  0  0  0  0  0  0  0999 V2000
   19.5242   69.4103   -2.7624 P   0  0  2  0  0  0  0  0  0  0  0  0
   19.7767   69.2748   -1.1696 O   0  0  0  0  0  0  0  0  0  0  0  0
   18.9398   68.1930   -3.4170 O   0  0  0  0  0  0  0  0  0  0  0  0
   20.9525   69.9023   -3.3417 O   0  0  0  0  0  0  0  0  0  0  0  0
   21.2615   71.2832   -3.2954 C   0  0  0  0  0  0  0  0  0  0  0  0
   22.9059   72.5704   -2.1052 O   0  0  0  0  0  0  0  0  0  0  0  0
   24.7618   70.2557   -2.5403 O   0  0  0  0  0  0  0  0  0  0  0  0
   23.9622   69.9010    0.0425 O   0  0  0  0  0  0  0  0  0  0  0  0
   23.3569   70.2521   -2.2861 C   0  0  1  0  0  0  0  0  0  0  0  0
   23.0863   70.5799   -0.8330 C   0  0  2  0  0  0  0  0  0  0  0  0
   22.7469   71.4496   -3.0018 C   0  0  1  0  0  0  0  0  0  0  0  0
   23.2846   72.0858   -0.8071 C   0  0  2  0  0  0  0  0  0  0  0  0
   25.1736   69.4993   -2.0930 H   0  0  0  0  0  0  0  0  0  0  0  0
   23.7964   68.9462   -0.0103 H   0  0  0  0  0  0  0  0  0  0  0  0
   23.6294   74.7537    0.0530 O   0  0  0  0  0  0  0  0  0  0  0  0
   20.1085   74.4475    3.0115 O   0  0  0  0  0  0  0  0  0  0  0  0
   22.4721   72.7286    0.1866 N   0  0  0  0  0  0  0  0  0  0  0  0
   21.8761   74.5984    1.5264 N   0  0  0  0  0  0  0  0  0  0  0  0
   22.7290   74.0725    0.5470 C   0  0  0  0  0  0  0  0  0  0  0  0
   21.4339   72.0304    0.7913 C   0  0  0  0  0  0  0  0  0  0  0  0
   20.6293   72.5451    1.7232 C   0  0  0  0  0  0  0  0  0  0  0  0
   20.8308   73.9432    2.1571 C   0  0  0  0  0  0  0  0  0  0  0  0
   22.0368   75.5318    1.7952 H   0  0  0  0  0  0  0  0  0  0  0  0
   18.6100   70.7388   -2.8731 O   0  0  0  0  0  0  0  0  0  0  0  0
   17.2250   71.0116   -3.6612 P   0  0  2  0  0  0  0  0  0  0  0  0
   17.0330   72.6134   -3.5280 O   0  0  0  0  0  0  0  0  0  0  0  0
   16.0620   70.2055   -3.1596 O   0  0  0  0  0  0  0  0  0  0  0  0
   17.5847   70.7724   -5.2155 O   0  0  0  0  0  0  0  0  0  0  0  0
   18.7009   72.6166   -6.1964 O   0  0  0  0  0  0  0  0  0  0  0  0
   18.0120   70.2071   -9.4808 O   0  0  0  0  0  0  0  0  0  0  0  0
   15.9425   70.5714   -7.4513 O   0  0  0  0  0  0  0  0  0  0  0  0
   20.6733   70.3691   -8.3225 O   0  0  0  0  0  0  0  0  0  0  0  0
   18.2768   70.4940   -8.1077 C   0  0  2  0  0  0  0  0  0  0  0  0
   17.1388   71.3375   -7.5324 C   0  0  2  0  0  0  0  0  0  0  0  0
   19.5989   71.2609   -8.0313 C   0  0  1  0  0  0  0  0  0  0  0  0
   17.4933   71.8565   -6.1382 C   0  0  1  0  0  0  0  0  0  0  0  0
   19.8197   71.8536   -6.6426 C   0  0  1  0  0  0  0  0  0  0  0  0
   17.1762   69.7199   -9.5542 H   0  0  0  0  0  0  0  0  0  0  0  0
   15.7118   70.2387   -8.3325 H   0  0  0  0  0  0  0  0  0  0  0  0
   20.5448   69.9848   -9.2038 H   0  0  0  0  0  0  0  0  0  0  0  0
   22.1311   72.2436   -6.7252 O   0  0  0  0  0  0  0  0  0  0  0  0
   20.7705   74.0711   -6.6350 O   0  0  0  0  0  0  0  0  0  0  0  0
   20.9244   72.8593   -6.6646 C   0  0  0  0  0  0  0  0  0  0  0  0
  1  4  1  0
  1 24  1  0
  1  2  1  1
  1  3  2  0
 25 28  1  0
 25 24  1  0
 25 26  1  6
 25 27  2  0
  6 11  1  0
  6 12  1  0
 29 36  1  0
 29 37  1  0
  9  7  1  1
  7 13  1  0
 10  8  1  1
  8 14  1  0
  4  5  1  0
 36 28  1  1
 33 30  1  6
 30 38  1  0
 34 31  1  1
 31 39  1  0
 35 32  1  1
 32 40  1  0
 41 43  1  0
 15 19  2  0
 42 43  2  0
 16 22  2  0
 12 17  1  1
 17 19  1  0
 17 20  1  0
 18 19  1  0
 18 22  1  0
 18 23  1  0
  9 10  1  0
  9 11  1  0
 10 12  1  0
 11  5  1  1
 33 34  1  0
 33 35  1  0
 34 36  1  0
 35 37  1  0
 37 43  1  6
 20 21  2  0
 21 22  1  0
M  CHG  3   2  -1  26  -1  41  -1
M  END
>  <COMPND>  (88) 
    udp_gluA.pdb 

>  <AUTHOR>  (88) 
    GENERATED BY OPEN BABEL 3.1.1

>  <MASTER>  (88) 
        0    0    0    0    0    0    0    0   56    0   56    0

>  <minimizedAffinity>  (88) 
-8.06160

>  <CNNscore>  (88) 
0.4206769168

>  <CNNaffinity>  (88) 
4.2191534042

>  <CNN_VS>  (88) 
1.7749004364

>  <CNNaffinity_variance>  (88) 
0.2713557184

$$$$
89
     RDKit          3D

 43 45  0  0  0  0  0  0  0  0999 V2000
   21.1775   72.7535    0.6283 P   0  0  2  0  0  0  0  0  0  0  0  0
   22.4832   72.5661    1.5658 O   0  0  0  0  0  0  0  0  0  0  0  0
   20.1314   73.6791    1.1766 O   0  0  0  0  0  0  0  0  0  0  0  0
   20.6906   71.2390    0.3329 O   0  0  0  0  0  0  0  0  0  0  0  0
   19.8376   71.0066   -0.7729 C   0  0  0  0  0  0  0  0  0  0  0  0
   19.2836   68.9359   -1.8606 O   0  0  0  0  0  0  0  0  0  0  0  0
   21.8707   69.2391   -3.3460 O   0  0  0  0  0  0  0  0  0  0  0  0
   20.0301   70.0660   -5.1802 O   0  0  0  0  0  0  0  0  0  0  0  0
   20.9427   70.2426   -2.9334 C   0  0  1  0  0  0  0  0  0  0  0  0
   19.7102   70.2098   -3.8122 C   0  0  2  0  0  0  0  0  0  0  0  0
   20.3794   69.8333   -1.5793 C   0  0  1  0  0  0  0  0  0  0  0  0
   18.9595   69.0110   -3.2580 C   0  0  2  0  0  0  0  0  0  0  0  0
   22.2440   69.4787   -4.2091 H   0  0  0  0  0  0  0  0  0  0  0  0
   20.5066   70.8545   -5.4855 H   0  0  0  0  0  0  0  0  0  0  0  0
   17.2785   67.0247   -4.3558 O   0  0  0  0  0  0  0  0  0  0  0  0
   13.5163   69.6193   -3.7576 O   0  0  0  0  0  0  0  0  0  0  0  0
   17.5370   69.1413   -3.4010 N   0  0  0  0  0  0  0  0  0  0  0  0
   15.4065   68.3193   -4.0578 N   0  0  0  0  0  0  0  0  0  0  0  0
   16.7846   68.0842   -3.9655 C   0  0  0  0  0  0  0  0  0  0  0  0
   16.9015   70.3043   -2.9833 C   0  0  0  0  0  0  0  0  0  0  0  0
   15.5870   70.5138   -3.0777 C   0  0  0  0  0  0  0  0  0  0  0  0
   14.7290   69.4593   -3.6568 C   0  0  0  0  0  0  0  0  0  0  0  0
   14.8620   67.5985   -4.4494 H   0  0  0  0  0  0  0  0  0  0  0  0
   21.8096   73.2143   -0.7863 O   0  0  0  0  0  0  0  0  0  0  0  0
   21.9403   74.6760   -1.4646 P   0  0  2  0  0  0  0  0  0  0  0  0
   23.2916   75.2718   -0.8019 O   0  0  0  0  0  0  0  0  0  0  0  0
   20.7298   75.5466   -1.2896 O   0  0  0  0  0  0  0  0  0  0  0  0
   22.3361   74.3806   -3.0004 O   0  0  0  0  0  0  0  0  0  0  0  0
   20.4210   73.5819   -4.1421 O   0  0  0  0  0  0  0  0  0  0  0  0
   23.2896   73.4414   -7.1118 O   0  0  0  0  0  0  0  0  0  0  0  0
   23.9264   72.5749   -4.3955 O   0  0  0  0  0  0  0  0  0  0  0  0
   21.2934   75.5547   -7.1102 O   0  0  0  0  0  0  0  0  0  0  0  0
   22.6522   73.9465   -5.9386 C   0  0  2  0  0  0  0  0  0  0  0  0
   22.6138   72.8563   -4.8673 C   0  0  2  0  0  0  0  0  0  0  0  0
   21.2314   74.3704   -6.3177 C   0  0  1  0  0  0  0  0  0  0  0  0
   21.7403   73.2807   -3.6860 C   0  0  1  0  0  0  0  0  0  0  0  0
   20.3862   74.6557   -5.0796 C   0  0  1  0  0  0  0  0  0  0  0  0
   24.1943   73.1656   -6.8952 H   0  0  0  0  0  0  0  0  0  0  0  0
   24.4863   72.3053   -5.1400 H   0  0  0  0  0  0  0  0  0  0  0  0
   21.8288   75.3866   -7.9014 H   0  0  0  0  0  0  0  0  0  0  0  0
   18.7047   74.1680   -6.6405 O   0  0  0  0  0  0  0  0  0  0  0  0
   18.0750   75.2597   -4.7402 O   0  0  0  0  0  0  0  0  0  0  0  0
   18.9377   74.7439   -5.4351 C   0  0  0  0  0  0  0  0  0  0  0  0
  1  4  1  0
  1 24  1  0
  1  2  1  1
  1  3  2  0
 25 28  1  0
 25 24  1  0
 25 26  1  1
 25 27  2  0
  6 11  1  0
  6 12  1  0
 29 36  1  0
 29 37  1  0
  9  7  1  6
  7 13  1  0
 10  8  1  6
  8 14  1  0
  4  5  1  0
 36 28  1  6
 33 30  1  6
 30 38  1  0
 34 31  1  1
 31 39  1  0
 35 32  1  6
 32 40  1  0
 41 43  1  0
 15 19  2  0
 42 43  2  0
 16 22  2  0
 12 17  1  1
 17 19  1  0
 17 20  1  0
 18 19  1  0
 18 22  1  0
 18 23  1  0
  9 10  1  0
  9 11  1  0
 10 12  1  0
 11  5  1  6
 33 34  1  0
 33 35  1  0
 34 36  1  0
 35 37  1  0
 37 43  1  6
 20 21  2  0
 21 22  1  0
M  CHG  3   2  -1  26  -1  41  -1
M  END
>  <COMPND>  (89) 
    udp_gluA.pdb 

>  <AUTHOR>  (89) 
    GENERATED BY OPEN BABEL 3.1.1

>  <MASTER>  (89) 
        0    0    0    0    0    0    0    0   56    0   56    0

>  <minimizedAffinity>  (89) 
-7.01260

>  <CNNscore>  (89) 
0.4125716984

>  <CNNaffinity>  (89) 
4.1719713211

>  <CNN_VS>  (89) 
1.7212373018

>  <CNNaffinity_variance>  (89) 
0.3809600770

$$$$
90
     RDKit          3D

 43 45  0  0  0  0  0  0  0  0999 V2000
   22.6308   73.0469   -3.9324 P   0  0  2  0  0  0  0  0  0  0  0  0
   23.2010   74.5523   -3.7664 O   0  0  0  0  0  0  0  0  0  0  0  0
   22.8546   72.4299   -5.2818 O   0  0  0  0  0  0  0  0  0  0  0  0
   21.0878   73.1615   -3.4593 O   0  0  0  0  0  0  0  0  0  0  0  0
   20.1527   73.7559   -4.3407 C   0  0  0  0  0  0  0  0  0  0  0  0
   17.9307   73.2036   -5.0723 O   0  0  0  0  0  0  0  0  0  0  0  0
   17.5053   72.0813   -2.3244 O   0  0  0  0  0  0  0  0  0  0  0  0
   17.9659   69.8457   -3.8164 O   0  0  0  0  0  0  0  0  0  0  0  0
   18.6812   72.0673   -3.1342 C   0  0  1  0  0  0  0  0  0  0  0  0
   18.5325   71.0621   -4.2567 C   0  0  2  0  0  0  0  0  0  0  0  0
   18.7445   73.3856   -3.8934 C   0  0  1  0  0  0  0  0  0  0  0  0
   17.6349   71.8069   -5.2301 C   0  0  2  0  0  0  0  0  0  0  0  0
   17.4431   71.2489   -1.8296 H   0  0  0  0  0  0  0  0  0  0  0  0
   18.5753   69.4098   -3.1994 H   0  0  0  0  0  0  0  0  0  0  0  0
   16.2838   69.7190   -6.5688 O   0  0  0  0  0  0  0  0  0  0  0  0
   18.6356   70.4492  -10.4649 O   0  0  0  0  0  0  0  0  0  0  0  0
   17.8745   71.4301   -6.5945 N   0  0  0  0  0  0  0  0  0  0  0  0
   17.4571   70.0841   -8.5077 N   0  0  0  0  0  0  0  0  0  0  0  0
   17.1415   70.3665   -7.1721 C   0  0  0  0  0  0  0  0  0  0  0  0
   18.8244   72.1115   -7.3456 C   0  0  0  0  0  0  0  0  0  0  0  0
   19.1141   71.8309   -8.6177 C   0  0  0  0  0  0  0  0  0  0  0  0
   18.3939   70.7331   -9.2956 C   0  0  0  0  0  0  0  0  0  0  0  0
   16.9613   69.3462   -8.9308 H   0  0  0  0  0  0  0  0  0  0  0  0
   23.3289   72.2573   -2.7068 O   0  0  0  0  0  0  0  0  0  0  0  0
   22.7377   71.1604   -1.6768 P   0  0  2  0  0  0  0  0  0  0  0  0
   24.0483   70.6768   -0.8590 O   0  0  0  0  0  0  0  0  0  0  0  0
   21.9734   70.0478   -2.3339 O   0  0  0  0  0  0  0  0  0  0  0  0
   21.8855   72.0188   -0.6094 O   0  0  0  0  0  0  0  0  0  0  0  0
   22.0941   74.3779   -0.5993 O   0  0  0  0  0  0  0  0  0  0  0  0
   20.3352   73.6737    3.0720 O   0  0  0  0  0  0  0  0  0  0  0  0
   22.4863   71.9495    2.1054 O   0  0  0  0  0  0  0  0  0  0  0  0
   18.7518   74.7274    0.8735 O   0  0  0  0  0  0  0  0  0  0  0  0
   20.6122   73.4338    1.6923 C   0  0  2  0  0  0  0  0  0  0  0  0
   22.1091   73.1840    1.5068 C   0  0  2  0  0  0  0  0  0  0  0  0
   20.1767   74.6690    0.9008 C   0  0  1  0  0  0  0  0  0  0  0  0
   22.4786   73.1514    0.0231 C   0  0  1  0  0  0  0  0  0  0  0  0
   20.6904   74.6202   -0.5352 C   0  0  1  0  0  0  0  0  0  0  0  0
   20.6039   72.9019    3.5949 H   0  0  0  0  0  0  0  0  0  0  0  0
   22.2545   71.9631    3.0470 H   0  0  0  0  0  0  0  0  0  0  0  0
   18.4120   74.7588    1.7815 H   0  0  0  0  0  0  0  0  0  0  0  0
   21.7659   76.5184   -1.3965 O   0  0  0  0  0  0  0  0  0  0  0  0
   19.4892   76.4699   -1.5136 O   0  0  0  0  0  0  0  0  0  0  0  0
   20.5497   75.9535   -1.1946 C   0  0  0  0  0  0  0  0  0  0  0  0
  1  4  1  0
  1 24  1  0
  1  2  1  6
  1  3  2  0
 25 28  1  0
 25 24  1  0
 25 26  1  1
 25 27  2  0
  6 11  1  0
  6 12  1  0
 29 36  1  0
 29 37  1  0
  9  7  1  1
  7 13  1  0
 10  8  1  1
  8 14  1  0
  4  5  1  0
 36 28  1  6
 33 30  1  1
 30 38  1  0
 34 31  1  6
 31 39  1  0
 35 32  1  6
 32 40  1  0
 41 43  1  0
 15 19  2  0
 42 43  2  0
 16 22  2  0
 12 17  1  6
 17 19  1  0
 17 20  1  0
 18 19  1  0
 18 22  1  0
 18 23  1  0
  9 10  1  0
  9 11  1  0
 10 12  1  0
 11  5  1  6
 33 34  1  0
 33 35  1  0
 34 36  1  0
 35 37  1  0
 37 43  1  1
 20 21  2  0
 21 22  1  0
M  CHG  3   2  -1  26  -1  41  -1
M  END
>  <COMPND>  (90) 
    udp_gluA.pdb 

>  <AUTHOR>  (90) 
    GENERATED BY OPEN BABEL 3.1.1

>  <MASTER>  (90) 
        0    0    0    0    0    0    0    0   56    0   56    0

>  <minimizedAffinity>  (90) 
-6.49686

>  <CNNscore>  (90) 
0.3910554945

>  <CNNaffinity>  (90) 
4.2036676407

>  <CNN_VS>  (90) 
1.6438673735

>  <CNNaffinity_variance>  (90) 
0.0499228761

$$$$
91
     RDKit          3D

 43 45  0  0  0  0  0  0  0  0999 V2000
   23.4279   70.7541   -2.0547 P   0  0  2  0  0  0  0  0  0  0  0  0
   23.9550   71.6379   -3.3037 O   0  0  0  0  0  0  0  0  0  0  0  0
   24.5075   70.1355   -1.2159 O   0  0  0  0  0  0  0  0  0  0  0  0
   22.3798   69.7199   -2.7254 O   0  0  0  0  0  0  0  0  0  0  0  0
   21.5381   70.1881   -3.7631 C   0  0  0  0  0  0  0  0  0  0  0  0
   19.3826   71.1614   -4.1925 O   0  0  0  0  0  0  0  0  0  0  0  0
   18.3833   69.4994   -1.9054 O   0  0  0  0  0  0  0  0  0  0  0  0
   17.5676   68.0715   -4.0806 O   0  0  0  0  0  0  0  0  0  0  0  0
   19.3704   69.1845   -2.8877 C   0  0  1  0  0  0  0  0  0  0  0  0
   18.7106   68.8895   -4.2181 C   0  0  2  0  0  0  0  0  0  0  0  0
   20.1507   70.4556   -3.1939 C   0  0  1  0  0  0  0  0  0  0  0  0
   18.3751   70.2837   -4.7197 C   0  0  2  0  0  0  0  0  0  0  0  0
   17.8718   68.7025   -1.6934 H   0  0  0  0  0  0  0  0  0  0  0  0
   17.8338   67.1953   -3.7592 H   0  0  0  0  0  0  0  0  0  0  0  0
   16.1315   69.7915   -6.3631 O   0  0  0  0  0  0  0  0  0  0  0  0
   18.5323   70.6358  -10.2059 O   0  0  0  0  0  0  0  0  0  0  0  0
   18.3859   70.3678   -6.1527 N   0  0  0  0  0  0  0  0  0  0  0  0
   17.3296   70.2115   -8.2755 N   0  0  0  0  0  0  0  0  0  0  0  0
   17.2046   70.1009   -6.8844 C   0  0  0  0  0  0  0  0  0  0  0  0
   19.5558   70.7128   -6.8184 C   0  0  0  0  0  0  0  0  0  0  0  0
   19.6596   70.8143   -8.1450 C   0  0  0  0  0  0  0  0  0  0  0  0
   18.4715   70.5508   -8.9831 C   0  0  0  0  0  0  0  0  0  0  0  0
   16.5210   70.0283   -8.8063 H   0  0  0  0  0  0  0  0  0  0  0  0
   22.4660   71.7835   -1.2622 O   0  0  0  0  0  0  0  0  0  0  0  0
   22.4936   73.3966   -1.1590 P   0  0  2  0  0  0  0  0  0  0  0  0
   21.9370   73.8692   -2.6037 O   0  0  0  0  0  0  0  0  0  0  0  0
   23.8337   73.9676   -0.7956 O   0  0  0  0  0  0  0  0  0  0  0  0
   21.3084   73.7610   -0.1269 O   0  0  0  0  0  0  0  0  0  0  0  0
   21.5357   74.0562    2.2119 O   0  0  0  0  0  0  0  0  0  0  0  0
   17.5857   72.8886    1.8918 O   0  0  0  0  0  0  0  0  0  0  0  0
   19.6535   71.5679    0.3060 O   0  0  0  0  0  0  0  0  0  0  0  0
   18.2479   75.6754    2.3879 O   0  0  0  0  0  0  0  0  0  0  0  0
   18.7974   73.5158    1.4717 C   0  0  2  0  0  0  0  0  0  0  0  0
   19.9086   72.4701    1.3764 C   0  0  2  0  0  0  0  0  0  0  0  0
   19.1596   74.5847    2.5053 C   0  0  1  0  0  0  0  0  0  0  0  0
   21.2678   73.1349    1.1541 C   0  0  1  0  0  0  0  0  0  0  0  0
   20.5768   75.1085    2.2918 C   0  0  1  0  0  0  0  0  0  0  0  0
   17.3358   72.2053    1.2501 H   0  0  0  0  0  0  0  0  0  0  0  0
   18.7924   71.1427    0.4405 H   0  0  0  0  0  0  0  0  0  0  0  0
   17.3420   75.3555    2.5216 H   0  0  0  0  0  0  0  0  0  0  0  0
   22.1474   75.3334    4.0193 O   0  0  0  0  0  0  0  0  0  0  0  0
   20.4949   76.9003    3.9055 O   0  0  0  0  0  0  0  0  0  0  0  0
   21.0369   75.8923    3.4776 C   0  0  0  0  0  0  0  0  0  0  0  0
  1  4  1  0
  1 24  1  0
  1  2  1  6
  1  3  2  0
 25 28  1  0
 25 24  1  0
 25 26  1  6
 25 27  2  0
  6 11  1  0
  6 12  1  0
 29 36  1  0
 29 37  1  0
  9  7  1  1
  7 13  1  0
 10  8  1  1
  8 14  1  0
  4  5  1  0
 36 28  1  6
 33 30  1  1
 30 38  1  0
 34 31  1  6
 31 39  1  0
 35 32  1  6
 32 40  1  0
 41 43  1  0
 15 19  2  0
 42 43  2  0
 16 22  2  0
 12 17  1  6
 17 19  1  0
 17 20  1  0
 18 19  1  0
 18 22  1  0
 18 23  1  0
  9 10  1  0
  9 11  1  0
 10 12  1  0
 11  5  1  6
 33 34  1  0
 33 35  1  0
 34 36  1  0
 35 37  1  0
 37 43  1  1
 20 21  2  0
 21 22  1  0
M  CHG  3   2  -1  26  -1  41  -1
M  END
>  <COMPND>  (91) 
    udp_gluA.pdb 

>  <AUTHOR>  (91) 
    GENERATED BY OPEN BABEL 3.1.1

>  <MASTER>  (91) 
        0    0    0    0    0    0    0    0   56    0   56    0

>  <minimizedAffinity>  (91) 
-7.35355

>  <CNNscore>  (91) 
0.3866137862

>  <CNNaffinity>  (91) 
4.2733335495

>  <CNN_VS>  (91) 
1.6521296501

>  <CNNaffinity_variance>  (91) 
0.0556149073

$$$$
92
     RDKit          3D

 43 45  0  0  0  0  0  0  0  0999 V2000
   21.6227   72.9279   -6.1548 P   0  0  2  0  0  0  0  0  0  0  0  0
   20.7704   74.1832   -6.7175 O   0  0  0  0  0  0  0  0  0  0  0  0
   23.1021   73.0091   -6.3924 O   0  0  0  0  0  0  0  0  0  0  0  0
   20.8790   71.6381   -6.7883 O   0  0  0  0  0  0  0  0  0  0  0  0
   20.5808   71.6417   -8.1723 C   0  0  0  0  0  0  0  0  0  0  0  0
   19.1277   69.9921   -7.2002 O   0  0  0  0  0  0  0  0  0  0  0  0
   17.6564   70.0185   -9.8129 O   0  0  0  0  0  0  0  0  0  0  0  0
   16.0711   71.5636   -8.2206 O   0  0  0  0  0  0  0  0  0  0  0  0
   18.2824   71.0969   -9.1174 C   0  0  1  0  0  0  0  0  0  0  0  0
   17.4495   71.5019   -7.9196 C   0  0  2  0  0  0  0  0  0  0  0  0
   19.5467   70.5608   -8.4597 C   0  0  1  0  0  0  0  0  0  0  0  0
   17.7814   70.4071   -6.9200 C   0  0  2  0  0  0  0  0  0  0  0  0
   16.8460   70.3368  -10.2414 H   0  0  0  0  0  0  0  0  0  0  0  0
   15.9114   72.2758   -8.8604 H   0  0  0  0  0  0  0  0  0  0  0  0
   17.4074   68.7190   -4.6869 O   0  0  0  0  0  0  0  0  0  0  0  0
   17.5115   72.2725   -1.7533 O   0  0  0  0  0  0  0  0  0  0  0  0
   17.7071   70.8647   -5.5614 N   0  0  0  0  0  0  0  0  0  0  0  0
   17.4586   70.4906   -3.2280 N   0  0  0  0  0  0  0  0  0  0  0  0
   17.5170   69.9341   -4.5126 C   0  0  0  0  0  0  0  0  0  0  0  0
   17.8235   72.2202   -5.2787 C   0  0  0  0  0  0  0  0  0  0  0  0
   17.7659   72.7356   -4.0491 C   0  0  0  0  0  0  0  0  0  0  0  0
   17.5685   71.8315   -2.8972 C   0  0  0  0  0  0  0  0  0  0  0  0
   17.3248   69.8625   -2.4817 H   0  0  0  0  0  0  0  0  0  0  0  0
   21.1933   72.8666   -4.5976 O   0  0  0  0  0  0  0  0  0  0  0  0
   21.5149   71.7742   -3.4501 P   0  0  2  0  0  0  0  0  0  0  0  0
   23.1250   71.6239   -3.5234 O   0  0  0  0  0  0  0  0  0  0  0  0
   20.7656   70.4822   -3.6025 O   0  0  0  0  0  0  0  0  0  0  0  0
   21.2409   72.5471   -2.0609 O   0  0  0  0  0  0  0  0  0  0  0  0
   22.6124   73.0406   -0.1942 O   0  0  0  0  0  0  0  0  0  0  0  0
   18.9795   72.2646    1.6135 O   0  0  0  0  0  0  0  0  0  0  0  0
   19.9276   70.5898   -0.5843 O   0  0  0  0  0  0  0  0  0  0  0  0
   19.9192   75.0022    1.3423 O   0  0  0  0  0  0  0  0  0  0  0  0
   19.8479   72.7192    0.5756 C   0  0  2  0  0  0  0  0  0  0  0  0
   20.7191   71.5593    0.0927 C   0  0  2  0  0  0  0  0  0  0  0  0
   20.7210   73.8390    1.1462 C   0  0  1  0  0  0  0  0  0  0  0  0
   21.8153   72.0547   -0.8516 C   0  0  1  0  0  0  0  0  0  0  0  0
   21.8659   74.1896    0.2003 C   0  0  1  0  0  0  0  0  0  0  0  0
   18.4148   71.5524    1.2741 H   0  0  0  0  0  0  0  0  0  0  0  0
   19.2298   70.2713    0.0089 H   0  0  0  0  0  0  0  0  0  0  0  0
   19.1866   74.7925    1.9425 H   0  0  0  0  0  0  0  0  0  0  0  0
   23.9851   75.1911    0.1129 O   0  0  0  0  0  0  0  0  0  0  0  0
   22.7584   75.5161    2.0073 O   0  0  0  0  0  0  0  0  0  0  0  0
   22.8874   75.0317    0.8929 C   0  0  0  0  0  0  0  0  0  0  0  0
  1  4  1  0
  1 24  1  0
  1  2  1  6
  1  3  2  0
 25 28  1  0
 25 24  1  0
 25 26  1  1
 25 27  2  0
  6 11  1  0
  6 12  1  0
 29 36  1  0
 29 37  1  0
  9  7  1  1
  7 13  1  0
 10  8  1  6
  8 14  1  0
  4  5  1  0
 36 28  1  6
 33 30  1  1
 30 38  1  0
 34 31  1  6
 31 39  1  0
 35 32  1  6
 32 40  1  0
 41 43  1  0
 15 19  2  0
 42 43  2  0
 16 22  2  0
 12 17  1  1
 17 19  1  0
 17 20  1  0
 18 19  1  0
 18 22  1  0
 18 23  1  0
  9 10  1  0
  9 11  1  0
 10 12  1  0
 11  5  1  1
 33 34  1  0
 33 35  1  0
 34 36  1  0
 35 37  1  0
 37 43  1  1
 20 21  2  0
 21 22  1  0
M  CHG  3   2  -1  26  -1  41  -1
M  END
>  <COMPND>  (92) 
    udp_gluA.pdb 

>  <AUTHOR>  (92) 
    GENERATED BY OPEN BABEL 3.1.1

>  <MASTER>  (92) 
        0    0    0    0    0    0    0    0   56    0   56    0

>  <minimizedAffinity>  (92) 
-7.00489

>  <CNNscore>  (92) 
0.3587529957

>  <CNNaffinity>  (92) 
4.0177025795

>  <CNN_VS>  (92) 
1.4413628578

>  <CNNaffinity_variance>  (92) 
0.2220385820

$$$$
93
     RDKit          3D

 43 45  0  0  0  0  0  0  0  0999 V2000
   19.1807   75.2707   -2.7668 P   0  0  2  0  0  0  0  0  0  0  0  0
   19.7940   76.7021   -3.2070 O   0  0  0  0  0  0  0  0  0  0  0  0
   17.7100   75.2761   -2.4690 O   0  0  0  0  0  0  0  0  0  0  0  0
   20.1411   74.7925   -1.5556 O   0  0  0  0  0  0  0  0  0  0  0  0
   19.9639   75.3802   -0.2798 C   0  0  0  0  0  0  0  0  0  0  0  0
   19.4368   73.0606    0.0657 O   0  0  0  0  0  0  0  0  0  0  0  0
   18.9100   73.7981    2.9240 O   0  0  0  0  0  0  0  0  0  0  0  0
   21.3983   72.6890    3.0437 O   0  0  0  0  0  0  0  0  0  0  0  0
   19.8963   74.3079    2.0263 C   0  0  1  0  0  0  0  0  0  0  0  0
   21.0014   73.2918    1.8298 C   0  0  2  0  0  0  0  0  0  0  0  0
   19.2763   74.3770    0.6373 C   0  0  1  0  0  0  0  0  0  0  0  0
   20.3565   72.3059    0.8707 C   0  0  2  0  0  0  0  0  0  0  0  0
   19.2830   73.7449    3.8183 H   0  0  0  0  0  0  0  0  0  0  0  0
   21.8030   73.3573    3.6195 H   0  0  0  0  0  0  0  0  0  0  0  0
   19.8795   69.9168   -0.5580 O   0  0  0  0  0  0  0  0  0  0  0  0
   24.1074   69.9552   -2.3931 O   0  0  0  0  0  0  0  0  0  0  0  0
   21.3151   71.6697    0.0122 N   0  0  0  0  0  0  0  0  0  0  0  0
   21.9860   69.9377   -1.4698 N   0  0  0  0  0  0  0  0  0  0  0  0
   20.9753   70.4717   -0.6597 C   0  0  0  0  0  0  0  0  0  0  0  0
   22.5742   72.2323   -0.1587 C   0  0  0  0  0  0  0  0  0  0  0  0
   23.5271   71.7117   -0.9343 C   0  0  0  0  0  0  0  0  0  0  0  0
   23.2533   70.4603   -1.6708 C   0  0  0  0  0  0  0  0  0  0  0  0
   21.7736   69.1027   -1.9462 H   0  0  0  0  0  0  0  0  0  0  0  0
   19.6180   74.2992   -3.9825 O   0  0  0  0  0  0  0  0  0  0  0  0
   19.8879   72.7057   -4.0234 P   0  0  2  0  0  0  0  0  0  0  0  0
   18.7569   72.1134   -3.0283 O   0  0  0  0  0  0  0  0  0  0  0  0
   21.2921   72.3098   -3.6691 O   0  0  0  0  0  0  0  0  0  0  0  0
   19.4147   72.2481   -5.4961 O   0  0  0  0  0  0  0  0  0  0  0  0
   18.8853   69.9435   -5.3631 O   0  0  0  0  0  0  0  0  0  0  0  0
   18.0213   70.7776   -9.3160 O   0  0  0  0  0  0  0  0  0  0  0  0
   20.4214   71.8734   -8.0617 O   0  0  0  0  0  0  0  0  0  0  0  0
   15.8692   70.4576   -7.3882 O   0  0  0  0  0  0  0  0  0  0  0  0
   18.1410   71.0572   -7.9212 C   0  0  2  0  0  0  0  0  0  0  0  0
   19.5942   70.8697   -7.4846 C   0  0  2  0  0  0  0  0  0  0  0  0
   17.2288   70.0889   -7.1648 C   0  0  1  0  0  0  0  0  0  0  0  0
   19.7206   70.9350   -5.9619 C   0  0  1  0  0  0  0  0  0  0  0  0
   17.5031   70.1223   -5.6641 C   0  0  1  0  0  0  0  0  0  0  0  0
   18.5924   71.3810   -9.8171 H   0  0  0  0  0  0  0  0  0  0  0  0
   20.3459   71.8379   -9.0278 H   0  0  0  0  0  0  0  0  0  0  0  0
   15.6816   70.4404   -8.3397 H   0  0  0  0  0  0  0  0  0  0  0  0
   15.5068   69.0626   -5.0368 O   0  0  0  0  0  0  0  0  0  0  0  0
   17.4574   68.0405   -4.4454 O   0  0  0  0  0  0  0  0  0  0  0  0
   16.8579   68.9608   -4.9809 C   0  0  0  0  0  0  0  0  0  0  0  0
  1  4  1  0
  1 24  1  0
  1  2  1  6
  1  3  2  0
 25 28  1  0
 25 24  1  0
 25 26  1  1
 25 27  2  0
  6 11  1  0
  6 12  1  0
 29 36  1  0
 29 37  1  0
  9  7  1  1
  7 13  1  0
 10  8  1  1
  8 14  1  0
  4  5  1  0
 36 28  1  1
 33 30  1  6
 30 38  1  0
 34 31  1  6
 31 39  1  0
 35 32  1  1
 32 40  1  0
 41 43  1  0
 15 19  2  0
 42 43  2  0
 16 22  2  0
 12 17  1  6
 17 19  1  0
 17 20  1  0
 18 19  1  0
 18 22  1  0
 18 23  1  0
  9 10  1  0
  9 11  1  0
 10 12  1  0
 11  5  1  6
 33 34  1  0
 33 35  1  0
 34 36  1  0
 35 37  1  0
 37 43  1  1
 20 21  2  0
 21 22  1  0
M  CHG  3   2  -1  26  -1  41  -1
M  END
>  <COMPND>  (93) 
    udp_gluA.pdb 

>  <AUTHOR>  (93) 
    GENERATED BY OPEN BABEL 3.1.1

>  <MASTER>  (93) 
        0    0    0    0    0    0    0    0   56    0   56    0

>  <minimizedAffinity>  (93) 
-7.79084

>  <CNNscore>  (93) 
0.3581641018

>  <CNNaffinity>  (93) 
4.0763926506

>  <CNN_VS>  (93) 
1.4600175619

>  <CNNaffinity_variance>  (93) 
0.5397642255

$$$$
94
     RDKit          3D

 43 45  0  0  0  0  0  0  0  0999 V2000
   21.4985   75.1870   -4.1777 P   0  0  2  0  0  0  0  0  0  0  0  0
   23.0665   74.7931   -4.1062 O   0  0  0  0  0  0  0  0  0  0  0  0
   21.2207   76.6481   -4.3766 O   0  0  0  0  0  0  0  0  0  0  0  0
   20.8710   74.5282   -2.8397 O   0  0  0  0  0  0  0  0  0  0  0  0
   19.5495   74.0229   -2.8907 C   0  0  0  0  0  0  0  0  0  0  0  0
   19.3687   72.7693   -0.8478 O   0  0  0  0  0  0  0  0  0  0  0  0
   18.5584   75.3501    0.4461 O   0  0  0  0  0  0  0  0  0  0  0  0
   21.1765   75.1160    1.1718 O   0  0  0  0  0  0  0  0  0  0  0  0
   19.5070   75.1205   -0.5960 C   0  0  1  0  0  0  0  0  0  0  0  0
   20.7665   74.4989   -0.0306 C   0  0  2  0  0  0  0  0  0  0  0  0
   18.9708   74.0042   -1.4818 C   0  0  1  0  0  0  0  0  0  0  0  0
   20.3429   73.0537    0.1687 C   0  0  2  0  0  0  0  0  0  0  0  0
   18.8792   76.0595    1.0253 H   0  0  0  0  0  0  0  0  0  0  0  0
   21.4363   76.0337    0.9920 H   0  0  0  0  0  0  0  0  0  0  0  0
   22.1264   72.3824    2.2532 O   0  0  0  0  0  0  0  0  0  0  0  0
   24.5155   69.5270   -0.4640 O   0  0  0  0  0  0  0  0  0  0  0  0
   21.4399   72.1375    0.0335 N   0  0  0  0  0  0  0  0  0  0  0  0
   23.3152   70.9617    0.8976 N   0  0  0  0  0  0  0  0  0  0  0  0
   22.2765   71.8695    1.1427 C   0  0  0  0  0  0  0  0  0  0  0  0
   21.6769   71.5145   -1.1858 C   0  0  0  0  0  0  0  0  0  0  0  0
   22.6710   70.6514   -1.4040 C   0  0  0  0  0  0  0  0  0  0  0  0
   23.5913   70.3173   -0.2974 C   0  0  0  0  0  0  0  0  0  0  0  0
   23.9122   70.7608    1.6543 H   0  0  0  0  0  0  0  0  0  0  0  0
   20.9369   74.2289   -5.3523 O   0  0  0  0  0  0  0  0  0  0  0  0
   21.5039   72.8374   -5.9491 P   0  0  2  0  0  0  0  0  0  0  0  0
   21.5707   71.8768   -4.6479 O   0  0  0  0  0  0  0  0  0  0  0  0
   22.8040   72.9687   -6.6882 O   0  0  0  0  0  0  0  0  0  0  0  0
   20.2895   72.2452   -6.8305 O   0  0  0  0  0  0  0  0  0  0  0  0
   19.1790   70.2596   -6.1722 O   0  0  0  0  0  0  0  0  0  0  0  0
   18.1105   70.5400  -10.1531 O   0  0  0  0  0  0  0  0  0  0  0  0
   20.8477   71.1161   -9.3104 O   0  0  0  0  0  0  0  0  0  0  0  0
   16.1951   71.2254   -8.0764 O   0  0  0  0  0  0  0  0  0  0  0  0
   18.4650   71.0331   -8.8611 C   0  0  2  0  0  0  0  0  0  0  0  0
   19.8551   70.5218   -8.4820 C   0  0  2  0  0  0  0  0  0  0  0  0
   17.4218   70.5304   -7.8605 C   0  0  1  0  0  0  0  0  0  0  0  0
   20.1735   70.8361   -7.0196 C   0  0  1  0  0  0  0  0  0  0  0  0
   17.8704   70.7681   -6.4215 C   0  0  1  0  0  0  0  0  0  0  0  0
   18.7595   70.8467  -10.8057 H   0  0  0  0  0  0  0  0  0  0  0  0
   20.6517   70.9209  -10.2398 H   0  0  0  0  0  0  0  0  0  0  0  0
   15.8987   71.0825   -8.9888 H   0  0  0  0  0  0  0  0  0  0  0  0
   17.6221   69.9080   -4.2535 O   0  0  0  0  0  0  0  0  0  0  0  0
   15.9348   69.5031   -5.7327 O   0  0  0  0  0  0  0  0  0  0  0  0
   17.0219   69.9934   -5.4665 C   0  0  0  0  0  0  0  0  0  0  0  0
  1  4  1  0
  1 24  1  0
  1  2  1  1
  1  3  2  0
 25 28  1  0
 25 24  1  0
 25 26  1  1
 25 27  2  0
  6 11  1  0
  6 12  1  0
 29 36  1  0
 29 37  1  0
  9  7  1  1
  7 13  1  0
 10  8  1  1
  8 14  1  0
  4  5  1  0
 36 28  1  6
 33 30  1  6
 30 38  1  0
 34 31  1  6
 31 39  1  0
 35 32  1  6
 32 40  1  0
 41 43  1  0
 15 19  2  0
 42 43  2  0
 16 22  2  0
 12 17  1  6
 17 19  1  0
 17 20  1  0
 18 19  1  0
 18 22  1  0
 18 23  1  0
  9 10  1  0
  9 11  1  0
 10 12  1  0
 11  5  1  6
 33 34  1  0
 33 35  1  0
 34 36  1  0
 35 37  1  0
 37 43  1  1
 20 21  2  0
 21 22  1  0
M  CHG  3   2  -1  26  -1  41  -1
M  END
>  <COMPND>  (94) 
    udp_gluA.pdb 

>  <AUTHOR>  (94) 
    GENERATED BY OPEN BABEL 3.1.1

>  <MASTER>  (94) 
        0    0    0    0    0    0    0    0   56    0   56    0

>  <minimizedAffinity>  (94) 
-7.44670

>  <CNNscore>  (94) 
0.3390356004

>  <CNNaffinity>  (94) 
4.1745190620

>  <CNN_VS>  (94) 
1.4153106213

>  <CNNaffinity_variance>  (94) 
0.2274998128

$$$$
95
     RDKit          3D

 43 45  0  0  0  0  0  0  0  0999 V2000
   20.1164   72.0998   -3.2635 P   0  0  2  0  0  0  0  0  0  0  0  0
   18.7547   72.7311   -3.8686 O   0  0  0  0  0  0  0  0  0  0  0  0
   19.9541   70.7660   -2.5954 O   0  0  0  0  0  0  0  0  0  0  0  0
   20.7140   73.2825   -2.3351 O   0  0  0  0  0  0  0  0  0  0  0  0
   20.5440   73.1923   -0.9325 C   0  0  0  0  0  0  0  0  0  0  0  0
   22.5299   74.0039    0.1517 O   0  0  0  0  0  0  0  0  0  0  0  0
   22.9229   71.1946    1.1239 O   0  0  0  0  0  0  0  0  0  0  0  0
   21.8752   72.4410    3.3113 O   0  0  0  0  0  0  0  0  0  0  0  0
   21.7105   71.9262    0.9407 C   0  0  1  0  0  0  0  0  0  0  0  0
   21.5495   72.9572    2.0377 C   0  0  2  0  0  0  0  0  0  0  0  0
   21.8711   72.7994   -0.2962 C   0  0  1  0  0  0  0  0  0  0  0  0
   22.5053   74.0488    1.5872 C   0  0  2  0  0  0  0  0  0  0  0  0
   22.8443   70.6292    1.9086 H   0  0  0  0  0  0  0  0  0  0  0  0
   21.2378   71.7501    3.5528 H   0  0  0  0  0  0  0  0  0  0  0  0
   22.9287   75.1100    4.1701 O   0  0  0  0  0  0  0  0  0  0  0  0
   20.8381   79.0715    3.0840 O   0  0  0  0  0  0  0  0  0  0  0  0
   22.0820   75.3549    2.0064 N   0  0  0  0  0  0  0  0  0  0  0  0
   21.8861   77.0816    3.6270 N   0  0  0  0  0  0  0  0  0  0  0  0
   22.3439   75.7920    3.3264 C   0  0  0  0  0  0  0  0  0  0  0  0
   21.4175   76.1880    1.1146 C   0  0  0  0  0  0  0  0  0  0  0  0
   20.9873   77.4149    1.4156 C   0  0  0  0  0  0  0  0  0  0  0  0
   21.2202   77.9471    2.7743 C   0  0  0  0  0  0  0  0  0  0  0  0
   22.0551   77.4071    4.5407 H   0  0  0  0  0  0  0  0  0  0  0  0
   21.1127   72.0985   -4.5364 O   0  0  0  0  0  0  0  0  0  0  0  0
   21.0943   72.9675   -5.8996 P   0  0  2  0  0  0  0  0  0  0  0  0
   22.4967   72.5757   -6.6069 O   0  0  0  0  0  0  0  0  0  0  0  0
   20.8989   74.4409   -5.6880 O   0  0  0  0  0  0  0  0  0  0  0  0
   19.9664   72.2673   -6.8162 O   0  0  0  0  0  0  0  0  0  0  0  0
   19.1332   70.1519   -6.1531 O   0  0  0  0  0  0  0  0  0  0  0  0
   17.8271   70.3811  -10.0658 O   0  0  0  0  0  0  0  0  0  0  0  0
   20.5192   71.2607   -9.3493 O   0  0  0  0  0  0  0  0  0  0  0  0
   15.9589   70.7944   -7.8773 O   0  0  0  0  0  0  0  0  0  0  0  0
   18.1902   70.8874   -8.7814 C   0  0  2  0  0  0  0  0  0  0  0  0
   19.6490   70.5371   -8.4869 C   0  0  2  0  0  0  0  0  0  0  0  0
   17.2684   70.2455   -7.7422 C   0  0  1  0  0  0  0  0  0  0  0  0
   20.0064   70.8584   -7.0350 C   0  0  1  0  0  0  0  0  0  0  0  0
   17.7626   70.5066   -6.3222 C   0  0  1  0  0  0  0  0  0  0  0  0
   18.3998   70.7751  -10.7427 H   0  0  0  0  0  0  0  0  0  0  0  0
   20.2979   71.0618  -10.2723 H   0  0  0  0  0  0  0  0  0  0  0  0
   15.6328   70.6352   -8.7768 H   0  0  0  0  0  0  0  0  0  0  0  0
   17.9390   69.1238   -4.4359 O   0  0  0  0  0  0  0  0  0  0  0  0
   15.8671   69.3688   -5.3559 O   0  0  0  0  0  0  0  0  0  0  0  0
   17.0631   69.6185   -5.3454 C   0  0  0  0  0  0  0  0  0  0  0  0
  1  4  1  0
  1 24  1  0
  1  2  1  6
  1  3  2  0
 25 28  1  0
 25 24  1  0
 25 26  1  6
 25 27  2  0
  6 11  1  0
  6 12  1  0
 29 36  1  0
 29 37  1  0
  9  7  1  1
  7 13  1  0
 10  8  1  1
  8 14  1  0
  4  5  1  0
 36 28  1  6
 33 30  1  6
 30 38  1  0
 34 31  1  6
 31 39  1  0
 35 32  1  1
 32 40  1  0
 41 43  1  0
 15 19  2  0
 42 43  2  0
 16 22  2  0
 12 17  1  6
 17 19  1  0
 17 20  1  0
 18 19  1  0
 18 22  1  0
 18 23  1  0
  9 10  1  0
  9 11  1  0
 10 12  1  0
 11  5  1  1
 33 34  1  0
 33 35  1  0
 34 36  1  0
 35 37  1  0
 37 43  1  1
 20 21  2  0
 21 22  1  0
M  CHG  3   2  -1  26  -1  41  -1
M  END
>  <COMPND>  (95) 
    udp_gluA.pdb 

>  <AUTHOR>  (95) 
    GENERATED BY OPEN BABEL 3.1.1

>  <MASTER>  (95) 
        0    0    0    0    0    0    0    0   56    0   56    0

>  <minimizedAffinity>  (95) 
-7.88328

>  <CNNscore>  (95) 
0.3299248219

>  <CNNaffinity>  (95) 
4.1745023727

>  <CNN_VS>  (95) 
1.3772720098

>  <CNNaffinity_variance>  (95) 
0.0611813366

$$$$
96
     RDKit          3D

 43 45  0  0  0  0  0  0  0  0999 V2000
   22.8507   72.8704   -4.1315 P   0  0  2  0  0  0  0  0  0  0  0  0
   24.2986   73.2359   -4.7550 O   0  0  0  0  0  0  0  0  0  0  0  0
   22.3720   73.7992   -3.0544 O   0  0  0  0  0  0  0  0  0  0  0  0
   22.9917   71.3155   -3.7070 O   0  0  0  0  0  0  0  0  0  0  0  0
   23.0614   70.9943   -2.3299 C   0  0  0  0  0  0  0  0  0  0  0  0
   21.6188   70.2933   -0.5396 O   0  0  0  0  0  0  0  0  0  0  0  0
   19.6761   69.4777   -2.6732 O   0  0  0  0  0  0  0  0  0  0  0  0
   18.6641   71.8642   -1.8267 O   0  0  0  0  0  0  0  0  0  0  0  0
   20.5688   70.5915   -2.6418 C   0  0  1  0  0  0  0  0  0  0  0  0
   20.0533   71.6498   -1.6897 C   0  0  2  0  0  0  0  0  0  0  0  0
   21.8532   70.1450   -1.9567 C   0  0  1  0  0  0  0  0  0  0  0  0
   20.4243   71.0651   -0.3375 C   0  0  2  0  0  0  0  0  0  0  0  0
   18.8480   69.7387   -3.1065 H   0  0  0  0  0  0  0  0  0  0  0  0
   18.4794   72.2371   -2.7035 H   0  0  0  0  0  0  0  0  0  0  0  0
   18.4220   72.4351    1.1083 O   0  0  0  0  0  0  0  0  0  0  0  0
   21.5369   74.9356    3.4081 O   0  0  0  0  0  0  0  0  0  0  0  0
   20.6841   72.0789    0.6452 N   0  0  0  0  0  0  0  0  0  0  0  0
   19.9752   73.6799    2.2516 N   0  0  0  0  0  0  0  0  0  0  0  0
   19.6065   72.7057    1.3145 C   0  0  0  0  0  0  0  0  0  0  0  0
   21.9931   72.4415    0.9383 C   0  0  0  0  0  0  0  0  0  0  0  0
   22.3289   73.3718    1.8341 C   0  0  0  0  0  0  0  0  0  0  0  0
   21.2627   74.0752    2.5770 C   0  0  0  0  0  0  0  0  0  0  0  0
   19.2422   74.1316    2.7289 H   0  0  0  0  0  0  0  0  0  0  0  0
   21.8994   72.8059   -5.4367 O   0  0  0  0  0  0  0  0  0  0  0  0
   20.4266   73.4151   -5.7079 P   0  0  2  0  0  0  0  0  0  0  0  0
   20.7389   74.8931   -6.2894 O   0  0  0  0  0  0  0  0  0  0  0  0
   19.5238   73.4005   -4.5084 O   0  0  0  0  0  0  0  0  0  0  0  0
   19.8687   72.5882   -6.9758 O   0  0  0  0  0  0  0  0  0  0  0  0
   19.0282   70.5886   -6.0248 O   0  0  0  0  0  0  0  0  0  0  0  0
   17.8682   70.1954   -9.9704 O   0  0  0  0  0  0  0  0  0  0  0  0
   20.5243   71.2116   -9.3020 O   0  0  0  0  0  0  0  0  0  0  0  0
   15.9158   70.9148   -7.9402 O   0  0  0  0  0  0  0  0  0  0  0  0
   18.1787   70.8982   -8.7672 C   0  0  2  0  0  0  0  0  0  0  0  0
   19.6282   70.6174   -8.3701 C   0  0  2  0  0  0  0  0  0  0  0  0
   17.2237   70.4112   -7.6751 C   0  0  1  0  0  0  0  0  0  0  0  0
   19.9282   71.1630   -6.9732 C   0  0  1  0  0  0  0  0  0  0  0  0
   17.6621   70.8943   -6.2957 C   0  0  1  0  0  0  0  0  0  0  0  0
   18.4627   70.4885  -10.6789 H   0  0  0  0  0  0  0  0  0  0  0  0
   20.3394   70.8702  -10.1906 H   0  0  0  0  0  0  0  0  0  0  0  0
   15.6250   70.6146   -8.8155 H   0  0  0  0  0  0  0  0  0  0  0  0
   17.3367   70.5774   -3.9945 O   0  0  0  0  0  0  0  0  0  0  0  0
   16.0882   69.2956   -5.4078 O   0  0  0  0  0  0  0  0  0  0  0  0
   16.9337   70.1574   -5.2193 C   0  0  0  0  0  0  0  0  0  0  0  0
  1  4  1  0
  1 24  1  0
  1  2  1  6
  1  3  2  0
 25 28  1  0
 25 24  1  0
 25 26  1  6
 25 27  2  0
  6 11  1  0
  6 12  1  0
 29 36  1  0
 29 37  1  0
  9  7  1  1
  7 13  1  0
 10  8  1  1
  8 14  1  0
  4  5  1  0
 36 28  1  6
 33 30  1  6
 30 38  1  0
 34 31  1  6
 31 39  1  0
 35 32  1  6
 32 40  1  0
 41 43  1  0
 15 19  2  0
 42 43  2  0
 16 22  2  0
 12 17  1  1
 17 19  1  0
 17 20  1  0
 18 19  1  0
 18 22  1  0
 18 23  1  0
  9 10  1  0
  9 11  1  0
 10 12  1  0
 11  5  1  6
 33 34  1  0
 33 35  1  0
 34 36  1  0
 35 37  1  0
 37 43  1  1
 20 21  2  0
 21 22  1  0
M  CHG  3   2  -1  26  -1  41  -1
M  END
>  <COMPND>  (96) 
    udp_gluA.pdb 

>  <AUTHOR>  (96) 
    GENERATED BY OPEN BABEL 3.1.1

>  <MASTER>  (96) 
        0    0    0    0    0    0    0    0   56    0   56    0

>  <minimizedAffinity>  (96) 
-8.16203

>  <CNNscore>  (96) 
0.3238695562

>  <CNNaffinity>  (96) 
4.0097513199

>  <CNN_VS>  (96) 
1.2986364365

>  <CNNaffinity_variance>  (96) 
0.3305890560

$$$$
97
     RDKit          3D

 43 45  0  0  0  0  0  0  0  0999 V2000
   20.1167   72.7722   -0.1280 P   0  0  2  0  0  0  0  0  0  0  0  0
   19.4419   71.8801    1.0415 O   0  0  0  0  0  0  0  0  0  0  0  0
   19.1452   73.4314   -1.0626 O   0  0  0  0  0  0  0  0  0  0  0  0
   21.1828   71.7683   -0.8163 O   0  0  0  0  0  0  0  0  0  0  0  0
   20.6952   70.6206   -1.4868 C   0  0  0  0  0  0  0  0  0  0  0  0
   20.4537   69.6861   -3.6882 O   0  0  0  0  0  0  0  0  0  0  0  0
   22.1338   71.9787   -4.6434 O   0  0  0  0  0  0  0  0  0  0  0  0
   19.6096   72.7769   -5.2970 O   0  0  0  0  0  0  0  0  0  0  0  0
   21.1507   71.9485   -3.6085 C   0  0  1  0  0  0  0  0  0  0  0  0
   19.7612   71.8917   -4.2071 C   0  0  2  0  0  0  0  0  0  0  0  0
   21.2500   70.6017   -2.9053 C   0  0  1  0  0  0  0  0  0  0  0  0
   19.6547   70.4333   -4.6190 C   0  0  2  0  0  0  0  0  0  0  0  0
   22.0896   72.8300   -5.1071 H   0  0  0  0  0  0  0  0  0  0  0  0
   19.6851   73.6922   -4.9831 H   0  0  0  0  0  0  0  0  0  0  0  0
   17.7671   70.7598   -6.6944 O   0  0  0  0  0  0  0  0  0  0  0  0
   14.5039   68.5279   -4.3250 O   0  0  0  0  0  0  0  0  0  0  0  0
   18.3047   69.9474   -4.5708 N   0  0  0  0  0  0  0  0  0  0  0  0
   16.1433   69.6488   -5.5119 N   0  0  0  0  0  0  0  0  0  0  0  0
   17.4368   70.1644   -5.6671 C   0  0  0  0  0  0  0  0  0  0  0  0
   17.8534   69.2635   -3.4485 C   0  0  0  0  0  0  0  0  0  0  0  0
   16.6176   68.7778   -3.3152 C   0  0  0  0  0  0  0  0  0  0  0  0
   15.6481   68.9625   -4.4149 C   0  0  0  0  0  0  0  0  0  0  0  0
   15.5204   69.7893   -6.2612 H   0  0  0  0  0  0  0  0  0  0  0  0
   21.0598   73.7954    0.6945 O   0  0  0  0  0  0  0  0  0  0  0  0
   21.5164   73.8047    2.2453 P   0  0  2  0  0  0  0  0  0  0  0  0
   22.5390   75.0572    2.3223 O   0  0  0  0  0  0  0  0  0  0  0  0
   22.0939   72.5045    2.7250 O   0  0  0  0  0  0  0  0  0  0  0  0
   20.2096   74.2956    3.0538 O   0  0  0  0  0  0  0  0  0  0  0  0
   18.1240   74.9592    2.1488 O   0  0  0  0  0  0  0  0  0  0  0  0
   18.2462   77.1321    5.6605 O   0  0  0  0  0  0  0  0  0  0  0  0
   20.6304   76.8803    3.9911 O   0  0  0  0  0  0  0  0  0  0  0  0
   16.5589   74.7732    5.4622 O   0  0  0  0  0  0  0  0  0  0  0  0
   18.5134   76.0200    4.8062 C   0  0  2  0  0  0  0  0  0  0  0  0
   19.3214   76.4874    3.5953 C   0  0  2  0  0  0  0  0  0  0  0  0
   17.1722   75.4352    4.3576 C   0  0  1  0  0  0  0  0  0  0  0  0
   19.4296   75.3777    2.5485 C   0  0  1  0  0  0  0  0  0  0  0  0
   17.3541   74.4286    3.2253 C   0  0  1  0  0  0  0  0  0  0  0  0
   19.0842   77.5201    5.9581 H   0  0  0  0  0  0  0  0  0  0  0  0
   20.5692   77.5840    4.6555 H   0  0  0  0  0  0  0  0  0  0  0  0
   16.4376   75.4029    6.1899 H   0  0  0  0  0  0  0  0  0  0  0  0
   16.2234   73.3188    1.4958 O   0  0  0  0  0  0  0  0  0  0  0  0
   14.9569   74.5154    2.9665 O   0  0  0  0  0  0  0  0  0  0  0  0
   16.0442   74.1154    2.5785 C   0  0  0  0  0  0  0  0  0  0  0  0
  1  4  1  0
  1 24  1  0
  1  2  1  1
  1  3  2  0
 25 28  1  0
 25 24  1  0
 25 26  1  6
 25 27  2  0
  6 11  1  0
  6 12  1  0
 29 36  1  0
 29 37  1  0
  9  7  1  6
  7 13  1  0
 10  8  1  6
  8 14  1  0
  4  5  1  0
 36 28  1  1
 33 30  1  1
 30 38  1  0
 34 31  1  1
 31 39  1  0
 35 32  1  1
 32 40  1  0
 41 43  1  0
 15 19  2  0
 42 43  2  0
 16 22  2  0
 12 17  1  1
 17 19  1  0
 17 20  1  0
 18 19  1  0
 18 22  1  0
 18 23  1  0
  9 10  1  0
  9 11  1  0
 10 12  1  0
 11  5  1  1
 33 34  1  0
 33 35  1  0
 34 36  1  0
 35 37  1  0
 37 43  1  6
 20 21  2  0
 21 22  1  0
M  CHG  3   2  -1  26  -1  41  -1
M  END
>  <COMPND>  (97) 
    udp_gluA.pdb 

>  <AUTHOR>  (97) 
    GENERATED BY OPEN BABEL 3.1.1

>  <MASTER>  (97) 
        0    0    0    0    0    0    0    0   56    0   56    0

>  <minimizedAffinity>  (97) 
-6.47740

>  <CNNscore>  (97) 
0.3216541111

>  <CNNaffinity>  (97) 
4.1453042030

>  <CNN_VS>  (97) 
1.3333541155

>  <CNNaffinity_variance>  (97) 
0.0086754356

$$$$
98
     RDKit          3D

 43 45  0  0  0  0  0  0  0  0999 V2000
   21.3069   70.6800   -1.7169 P   0  0  2  0  0  0  0  0  0  0  0  0
   20.3304   70.0031   -0.6182 O   0  0  0  0  0  0  0  0  0  0  0  0
   22.1947   69.7197   -2.4527 O   0  0  0  0  0  0  0  0  0  0  0  0
   22.0654   71.8491   -0.8947 O   0  0  0  0  0  0  0  0  0  0  0  0
   22.3054   71.6572    0.4874 C   0  0  0  0  0  0  0  0  0  0  0  0
   21.8337   74.0091    0.3336 O   0  0  0  0  0  0  0  0  0  0  0  0
   22.4865   74.1417    3.2572 O   0  0  0  0  0  0  0  0  0  0  0  0
   19.7596   74.1485    3.2547 O   0  0  0  0  0  0  0  0  0  0  0  0
   21.8315   73.1067    2.5237 C   0  0  1  0  0  0  0  0  0  0  0  0
   20.4198   73.5262    2.1724 C   0  0  2  0  0  0  0  0  0  0  0  0
   22.4872   73.0154    1.1526 C   0  0  1  0  0  0  0  0  0  0  0  0
   20.6527   74.4727    1.0072 C   0  0  2  0  0  0  0  0  0  0  0  0
   22.0847   74.2190    4.1371 H   0  0  0  0  0  0  0  0  0  0  0  0
   19.6347   73.5049    3.9704 H   0  0  0  0  0  0  0  0  0  0  0  0
   19.9387   76.6812   -0.6019 O   0  0  0  0  0  0  0  0  0  0  0  0
   16.4329   74.3836   -2.5188 O   0  0  0  0  0  0  0  0  0  0  0  0
   19.5577   74.4789    0.0789 N   0  0  0  0  0  0  0  0  0  0  0  0
   18.1927   75.5351   -1.5544 N   0  0  0  0  0  0  0  0  0  0  0  0
   19.2836   75.6403   -0.6815 C   0  0  0  0  0  0  0  0  0  0  0  0
   18.7703   73.3440   -0.0725 C   0  0  0  0  0  0  0  0  0  0  0  0
   17.7338   73.2588   -0.9087 C   0  0  0  0  0  0  0  0  0  0  0  0
   17.3797   74.4285   -1.7392 C   0  0  0  0  0  0  0  0  0  0  0  0
   17.9811   76.3317   -2.0929 H   0  0  0  0  0  0  0  0  0  0  0  0
   20.2809   71.5034   -2.6561 O   0  0  0  0  0  0  0  0  0  0  0  0
   20.5492   72.5721   -3.8391 P   0  0  2  0  0  0  0  0  0  0  0  0
   22.0774   72.2646   -4.2758 O   0  0  0  0  0  0  0  0  0  0  0  0
   20.2926   73.9991   -3.4497 O   0  0  0  0  0  0  0  0  0  0  0  0
   19.6583   72.0452   -5.0765 O   0  0  0  0  0  0  0  0  0  0  0  0
   19.4149   69.6969   -4.8891 O   0  0  0  0  0  0  0  0  0  0  0  0
   17.3657   70.4777   -8.3904 O   0  0  0  0  0  0  0  0  0  0  0  0
   19.9092   71.8035   -7.8360 O   0  0  0  0  0  0  0  0  0  0  0  0
   15.9063   69.9162   -5.9397 O   0  0  0  0  0  0  0  0  0  0  0  0
   17.8571   70.7537   -7.0788 C   0  0  2  0  0  0  0  0  0  0  0  0
   19.3855   70.7135   -7.0860 C   0  0  2  0  0  0  0  0  0  0  0  0
   17.3012   69.6882   -6.1315 C   0  0  1  0  0  0  0  0  0  0  0  0
   19.9411   70.7758   -5.6626 C   0  0  1  0  0  0  0  0  0  0  0  0
   17.9942   69.7345   -4.7728 C   0  0  1  0  0  0  0  0  0  0  0  0
   17.7061   71.1422   -9.0099 H   0  0  0  0  0  0  0  0  0  0  0  0
   19.5605   71.7703   -8.7403 H   0  0  0  0  0  0  0  0  0  0  0  0
   15.4534   69.8895   -6.7971 H   0  0  0  0  0  0  0  0  0  0  0  0
   18.0027   68.6888   -2.6732 O   0  0  0  0  0  0  0  0  0  0  0  0
   17.2215   67.4736   -4.4373 O   0  0  0  0  0  0  0  0  0  0  0  0
   17.6899   68.5052   -3.9799 C   0  0  0  0  0  0  0  0  0  0  0  0
  1  4  1  0
  1 24  1  0
  1  2  1  1
  1  3  2  0
 25 28  1  0
 25 24  1  0
 25 26  1  6
 25 27  2  0
  6 11  1  0
  6 12  1  0
 29 36  1  0
 29 37  1  0
  9  7  1  1
  7 13  1  0
 10  8  1  1
  8 14  1  0
  4  5  1  0
 36 28  1  1
 33 30  1  6
 30 38  1  0
 34 31  1  6
 31 39  1  0
 35 32  1  1
 32 40  1  0
 41 43  1  0
 15 19  2  0
 42 43  2  0
 16 22  2  0
 12 17  1  6
 17 19  1  0
 17 20  1  0
 18 19  1  0
 18 22  1  0
 18 23  1  0
  9 10  1  0
  9 11  1  0
 10 12  1  0
 11  5  1  6
 33 34  1  0
 33 35  1  0
 34 36  1  0
 35 37  1  0
 37 43  1  1
 20 21  2  0
 21 22  1  0
M  CHG  3   2  -1  26  -1  41  -1
M  END
>  <COMPND>  (98) 
    udp_gluA.pdb 

>  <AUTHOR>  (98) 
    GENERATED BY OPEN BABEL 3.1.1

>  <MASTER>  (98) 
        0    0    0    0    0    0    0    0   56    0   56    0

>  <minimizedAffinity>  (98) 
-7.26581

>  <CNNscore>  (98) 
0.3188896179

>  <CNNaffinity>  (98) 
3.9382317066

>  <CNN_VS>  (98) 
1.2558611631

>  <CNNaffinity_variance>  (98) 
0.3223156631

$$$$
99
     RDKit          3D

 43 45  0  0  0  0  0  0  0  0999 V2000
   20.8543   70.4652   -2.1032 P   0  0  2  0  0  0  0  0  0  0  0  0
   20.7150   69.2129   -3.1187 O   0  0  0  0  0  0  0  0  0  0  0  0
   19.6065   70.8057   -1.3424 O   0  0  0  0  0  0  0  0  0  0  0  0
   21.4595   71.6484   -3.0261 O   0  0  0  0  0  0  0  0  0  0  0  0
   20.5630   72.5743   -3.6122 C   0  0  0  0  0  0  0  0  0  0  0  0
   19.9486   71.2648   -5.5320 O   0  0  0  0  0  0  0  0  0  0  0  0
   20.5565   73.7078   -7.1609 O   0  0  0  0  0  0  0  0  0  0  0  0
   17.8346   73.7589   -7.0032 O   0  0  0  0  0  0  0  0  0  0  0  0
   19.9756   73.6105   -5.8603 C   0  0  1  0  0  0  0  0  0  0  0  0
   18.5450   73.1250   -5.9601 C   0  0  2  0  0  0  0  0  0  0  0  0
   20.6523   72.4595   -5.1285 C   0  0  1  0  0  0  0  0  0  0  0  0
   18.7331   71.6368   -6.2010 C   0  0  2  0  0  0  0  0  0  0  0  0
   20.1399   74.4367   -7.6477 H   0  0  0  0  0  0  0  0  0  0  0  0
   17.7410   74.7040   -6.8028 H   0  0  0  0  0  0  0  0  0  0  0  0
   16.8276   70.2772   -7.7811 O   0  0  0  0  0  0  0  0  0  0  0  0
   14.6251   68.6682   -4.0657 O   0  0  0  0  0  0  0  0  0  0  0  0
   17.6512   70.8552   -5.6725 N   0  0  0  0  0  0  0  0  0  0  0  0
   15.7319   69.4780   -5.9291 N   0  0  0  0  0  0  0  0  0  0  0  0
   16.7489   70.2125   -6.5529 C   0  0  0  0  0  0  0  0  0  0  0  0
   17.4930   70.7298   -4.2977 C   0  0  0  0  0  0  0  0  0  0  0  0
   16.5186   70.0260   -3.7179 C   0  0  0  0  0  0  0  0  0  0  0  0
   15.5333   69.3245   -4.5666 C   0  0  0  0  0  0  0  0  0  0  0  0
   15.0902   69.0233   -6.5215 H   0  0  0  0  0  0  0  0  0  0  0  0
   22.1126   70.0451   -1.1795 O   0  0  0  0  0  0  0  0  0  0  0  0
   23.0581   70.9271   -0.2090 P   0  0  2  0  0  0  0  0  0  0  0  0
   23.8302   71.9096   -1.2379 O   0  0  0  0  0  0  0  0  0  0  0  0
   23.9653   70.1158    0.6701 O   0  0  0  0  0  0  0  0  0  0  0  0
   22.0399   71.8914    0.5884 O   0  0  0  0  0  0  0  0  0  0  0  0
   22.3616   74.2034    0.1879 O   0  0  0  0  0  0  0  0  0  0  0  0
   19.6773   74.2597    3.3279 O   0  0  0  0  0  0  0  0  0  0  0  0
   21.9123   72.3784    3.3238 O   0  0  0  0  0  0  0  0  0  0  0  0
   18.7748   74.8399    0.6261 O   0  0  0  0  0  0  0  0  0  0  0  0
   20.2894   73.7439    2.1458 C   0  0  2  0  0  0  0  0  0  0  0  0
   21.7681   73.4642    2.4155 C   0  0  2  0  0  0  0  0  0  0  0  0
   20.1389   74.7909    1.0399 C   0  0  1  0  0  0  0  0  0  0  0  0
   22.5071   73.1303    1.1189 C   0  0  1  0  0  0  0  0  0  0  0  0
   21.0039   74.4511   -0.1704 C   0  0  1  0  0  0  0  0  0  0  0  0
   19.7607   73.6112    4.0447 H   0  0  0  0  0  0  0  0  0  0  0  0
   21.4455   72.5833    4.1487 H   0  0  0  0  0  0  0  0  0  0  0  0
   18.2135   75.0552    1.3873 H   0  0  0  0  0  0  0  0  0  0  0  0
   20.6548   76.7484   -0.4901 O   0  0  0  0  0  0  0  0  0  0  0  0
   21.5440   75.5788   -2.2339 O   0  0  0  0  0  0  0  0  0  0  0  0
   21.1086   75.6216   -1.0930 C   0  0  0  0  0  0  0  0  0  0  0  0
  1  4  1  0
  1 24  1  0
  1  2  1  6
  1  3  2  0
 25 28  1  0
 25 24  1  0
 25 26  1  6
 25 27  2  0
  6 11  1  0
  6 12  1  0
 29 36  1  0
 29 37  1  0
  9  7  1  6
  7 13  1  0
 10  8  1  6
  8 14  1  0
  4  5  1  0
 36 28  1  6
 33 30  1  1
 30 38  1  0
 34 31  1  1
 31 39  1  0
 35 32  1  6
 32 40  1  0
 41 43  1  0
 15 19  2  0
 42 43  2  0
 16 22  2  0
 12 17  1  1
 17 19  1  0
 17 20  1  0
 18 19  1  0
 18 22  1  0
 18 23  1  0
  9 10  1  0
  9 11  1  0
 10 12  1  0
 11  5  1  1
 33 34  1  0
 33 35  1  0
 34 36  1  0
 35 37  1  0
 37 43  1  6
 20 21  2  0
 21 22  1  0
M  CHG  3   2  -1  26  -1  41  -1
M  END
>  <COMPND>  (99) 
    udp_gluA.pdb 

>  <AUTHOR>  (99) 
    GENERATED BY OPEN BABEL 3.1.1

>  <MASTER>  (99) 
        0    0    0    0    0    0    0    0   56    0   56    0

>  <minimizedAffinity>  (99) 
-7.32085

>  <CNNscore>  (99) 
0.3188608289

>  <CNNaffinity>  (99) 
4.0861806870

>  <CNN_VS>  (99) 
1.3029229641

>  <CNNaffinity_variance>  (99) 
0.0614699237

$$$$
100
     RDKit          3D

 43 45  0  0  0  0  0  0  0  0999 V2000
   17.6608   74.9828   -7.0796 P   0  0  2  0  0  0  0  0  0  0  0  0
   16.1622   74.8463   -7.6751 O   0  0  0  0  0  0  0  0  0  0  0  0
   18.1635   76.3903   -6.9455 O   0  0  0  0  0  0  0  0  0  0  0  0
   18.5437   74.0082   -8.0222 O   0  0  0  0  0  0  0  0  0  0  0  0
   19.2849   72.9674   -7.4123 C   0  0  0  0  0  0  0  0  0  0  0  0
   19.3870   70.5738   -7.2175 O   0  0  0  0  0  0  0  0  0  0  0  0
   17.1655   70.5014   -9.2303 O   0  0  0  0  0  0  0  0  0  0  0  0
   15.8505   70.0927   -6.8766 O   0  0  0  0  0  0  0  0  0  0  0  0
   17.4020   71.4379   -8.1788 C   0  0  1  0  0  0  0  0  0  0  0  0
   17.0609   70.8194   -6.8396 C   0  0  2  0  0  0  0  0  0  0  0  0
   18.9062   71.6424   -8.0615 C   0  0  1  0  0  0  0  0  0  0  0  0
   18.2679   69.9325   -6.5853 C   0  0  2  0  0  0  0  0  0  0  0  0
   16.2109   70.3545   -9.3243 H   0  0  0  0  0  0  0  0  0  0  0  0
   15.1128   70.7016   -7.0409 H   0  0  0  0  0  0  0  0  0  0  0  0
   16.8790   68.1738   -4.8665 O   0  0  0  0  0  0  0  0  0  0  0  0
   19.4292   69.4176   -1.2342 O   0  0  0  0  0  0  0  0  0  0  0  0
   18.5483   69.7768   -5.1860 N   0  0  0  0  0  0  0  0  0  0  0  0
   18.1498   68.7957   -3.0588 N   0  0  0  0  0  0  0  0  0  0  0  0
   17.7914   68.8661   -4.4115 C   0  0  0  0  0  0  0  0  0  0  0  0
   19.5635   70.5194   -4.5953 C   0  0  0  0  0  0  0  0  0  0  0  0
   19.8935   70.4413   -3.3046 C   0  0  0  0  0  0  0  0  0  0  0  0
   19.1510   69.5142   -2.4257 C   0  0  0  0  0  0  0  0  0  0  0  0
   17.6356   68.1700   -2.4990 H   0  0  0  0  0  0  0  0  0  0  0  0
   17.5747   74.1632   -5.6890 O   0  0  0  0  0  0  0  0  0  0  0  0
   18.1605   74.5002   -4.2203 P   0  0  2  0  0  0  0  0  0  0  0  0
   17.7137   73.2170   -3.3405 O   0  0  0  0  0  0  0  0  0  0  0  0
   17.7076   75.8192   -3.6644 O   0  0  0  0  0  0  0  0  0  0  0  0
   19.7596   74.3519   -4.3736 O   0  0  0  0  0  0  0  0  0  0  0  0
   21.1015   74.3331   -2.4221 O   0  0  0  0  0  0  0  0  0  0  0  0
   23.9077   75.0628   -5.3650 O   0  0  0  0  0  0  0  0  0  0  0  0
   21.3132   76.4040   -5.4276 O   0  0  0  0  0  0  0  0  0  0  0  0
   23.7088   72.4246   -4.1604 O   0  0  0  0  0  0  0  0  0  0  0  0
   22.7092   74.5172   -4.8137 C   0  0  2  0  0  0  0  0  0  0  0  0
   21.8076   75.6515   -4.3259 C   0  0  2  0  0  0  0  0  0  0  0  0
   23.0974   73.6064   -3.6467 C   0  0  1  0  0  0  0  0  0  0  0  0
   20.6249   75.1046   -3.5254 C   0  0  1  0  0  0  0  0  0  0  0  0
   21.8769   73.2057   -2.8230 C   0  0  1  0  0  0  0  0  0  0  0  0
   23.6859   75.6453   -6.1085 H   0  0  0  0  0  0  0  0  0  0  0  0
   22.0583   76.7539   -5.9402 H   0  0  0  0  0  0  0  0  0  0  0  0
   24.4869   72.6657   -4.6869 H   0  0  0  0  0  0  0  0  0  0  0  0
   21.2106   72.3773   -0.7322 O   0  0  0  0  0  0  0  0  0  0  0  0
   23.4417   72.3436   -1.2014 O   0  0  0  0  0  0  0  0  0  0  0  0
   22.2910   72.6030   -1.5201 C   0  0  0  0  0  0  0  0  0  0  0  0
  1  4  1  0
  1 24  1  0
  1  2  1  6
  1  3  2  0
 25 28  1  0
 25 24  1  0
 25 26  1  1
 25 27  2  0
  6 11  1  0
  6 12  1  0
 29 36  1  0
 29 37  1  0
  9  7  1  6
  7 13  1  0
 10  8  1  6
  8 14  1  0
  4  5  1  0
 36 28  1  6
 33 30  1  1
 30 38  1  0
 34 31  1  6
 31 39  1  0
 35 32  1  6
 32 40  1  0
 41 43  1  0
 15 19  2  0
 42 43  2  0
 16 22  2  0
 12 17  1  1
 17 19  1  0
 17 20  1  0
 18 19  1  0
 18 22  1  0
 18 23  1  0
  9 10  1  0
  9 11  1  0
 10 12  1  0
 11  5  1  1
 33 34  1  0
 33 35  1  0
 34 36  1  0
 35 37  1  0
 37 43  1  1
 20 21  2  0
 21 22  1  0
M  CHG  3   2  -1  26  -1  41  -1
M  END
>  <COMPND>  (100) 
    udp_gluA.pdb 

>  <AUTHOR>  (100) 
    GENERATED BY OPEN BABEL 3.1.1

>  <MASTER>  (100) 
        0    0    0    0    0    0    0    0   56    0   56    0

>  <minimizedAffinity>  (100) 
-6.42993

>  <CNNscore>  (100) 
0.3010496497

>  <CNNaffinity>  (100) 
3.9845912457

>  <CNN_VS>  (100) 
1.1995598078

>  <CNNaffinity_variance>  (100) 
0.3800657690

$$$$
101
     RDKit          3D

 43 45  0  0  0  0  0  0  0  0999 V2000
   21.2125   70.2138   -2.1139 P   0  0  2  0  0  0  0  0  0  0  0  0
   22.7108   69.6905   -2.4302 O   0  0  0  0  0  0  0  0  0  0  0  0
   20.5809   69.6233   -0.8874 O   0  0  0  0  0  0  0  0  0  0  0  0
   20.4153   69.9712   -3.5008 O   0  0  0  0  0  0  0  0  0  0  0  0
   19.2157   69.2199   -3.4687 C   0  0  0  0  0  0  0  0  0  0  0  0
   18.1810   71.0805   -4.5846 O   0  0  0  0  0  0  0  0  0  0  0  0
   15.6719   70.3177   -3.1306 O   0  0  0  0  0  0  0  0  0  0  0  0
   15.2527   69.2906   -5.6217 O   0  0  0  0  0  0  0  0  0  0  0  0
   16.6930   69.4793   -3.6718 C   0  0  1  0  0  0  0  0  0  0  0  0
   16.5871   69.4322   -5.1814 C   0  0  2  0  0  0  0  0  0  0  0  0
   18.0308   70.1772   -3.4680 C   0  0  1  0  0  0  0  0  0  0  0  0
   17.1968   70.7647   -5.5821 C   0  0  2  0  0  0  0  0  0  0  0  0
   14.8076   69.8927   -3.2492 H   0  0  0  0  0  0  0  0  0  0  0  0
   14.9099   68.4267   -5.3422 H   0  0  0  0  0  0  0  0  0  0  0  0
   15.8209   70.7937   -8.0484 O   0  0  0  0  0  0  0  0  0  0  0  0
   19.7476   70.5547  -10.4501 O   0  0  0  0  0  0  0  0  0  0  0  0
   17.8348   70.7111   -6.8670 N   0  0  0  0  0  0  0  0  0  0  0  0
   17.7779   70.6736   -9.2422 N   0  0  0  0  0  0  0  0  0  0  0  0
   17.0518   70.7311   -8.0453 C   0  0  0  0  0  0  0  0  0  0  0  0
   19.2201   70.6413   -6.9511 C   0  0  0  0  0  0  0  0  0  0  0  0
   19.8981   70.5872   -8.0993 C   0  0  0  0  0  0  0  0  0  0  0  0
   19.1550   70.6027   -9.3764 C   0  0  0  0  0  0  0  0  0  0  0  0
   17.2543   70.6842  -10.0759 H   0  0  0  0  0  0  0  0  0  0  0  0
   21.3901   71.8199   -2.0730 O   0  0  0  0  0  0  0  0  0  0  0  0
   20.3290   72.9974   -1.7550 P   0  0  2  0  0  0  0  0  0  0  0  0
   18.9682   72.1879   -1.4182 O   0  0  0  0  0  0  0  0  0  0  0  0
   20.1891   74.0130   -2.8517 O   0  0  0  0  0  0  0  0  0  0  0  0
   20.8034   73.6039   -0.3374 O   0  0  0  0  0  0  0  0  0  0  0  0
   22.6945   74.8884    0.2814 O   0  0  0  0  0  0  0  0  0  0  0  0
   22.1484   72.5299    3.6291 O   0  0  0  0  0  0  0  0  0  0  0  0
   21.8804   71.3881    0.9535 O   0  0  0  0  0  0  0  0  0  0  0  0
   21.3619   75.3282    3.6715 O   0  0  0  0  0  0  0  0  0  0  0  0
   21.7457   73.2711    2.4774 C   0  0  2  0  0  0  0  0  0  0  0  0
   22.4068   72.6805    1.2318 C   0  0  2  0  0  0  0  0  0  0  0  0
   22.1829   74.7245    2.6736 C   0  0  1  0  0  0  0  0  0  0  0  0
   22.1852   73.5809    0.0157 C   0  0  1  0  0  0  0  0  0  0  0  0
   22.0494   75.5256    1.3818 C   0  0  1  0  0  0  0  0  0  0  0  0
   21.8810   71.6029    3.5270 H   0  0  0  0  0  0  0  0  0  0  0  0
   22.0173   70.8115    1.7211 H   0  0  0  0  0  0  0  0  0  0  0  0
   21.4376   74.8277    4.4989 H   0  0  0  0  0  0  0  0  0  0  0  0
   24.0063   76.7364    0.9275 O   0  0  0  0  0  0  0  0  0  0  0  0
   22.3264   77.8403    2.0039 O   0  0  0  0  0  0  0  0  0  0  0  0
   22.7747   76.8276    1.4877 C   0  0  0  0  0  0  0  0  0  0  0  0
  1  4  1  0
  1 24  1  0
  1  2  1  6
  1  3  2  0
 25 28  1  0
 25 24  1  0
 25 26  1  1
 25 27  2  0
  6 11  1  0
  6 12  1  0
 29 36  1  0
 29 37  1  0
  9  7  1  1
  7 13  1  0
 10  8  1  1
  8 14  1  0
  4  5  1  0
 36 28  1  1
 33 30  1  1
 30 38  1  0
 34 31  1  6
 31 39  1  0
 35 32  1  1
 32 40  1  0
 41 43  1  0
 15 19  2  0
 42 43  2  0
 16 22  2  0
 12 17  1  6
 17 19  1  0
 17 20  1  0
 18 19  1  0
 18 22  1  0
 18 23  1  0
  9 10  1  0
  9 11  1  0
 10 12  1  0
 11  5  1  6
 33 34  1  0
 33 35  1  0
 34 36  1  0
 35 37  1  0
 37 43  1  1
 20 21  2  0
 21 22  1  0
M  CHG  3   2  -1  26  -1  41  -1
M  END
>  <COMPND>  (101) 
    udp_gluA.pdb 

>  <AUTHOR>  (101) 
    GENERATED BY OPEN BABEL 3.1.1

>  <MASTER>  (101) 
        0    0    0    0    0    0    0    0   56    0   56    0

>  <minimizedAffinity>  (101) 
-7.93042

>  <CNNscore>  (101) 
0.8858307600

>  <CNNaffinity>  (101) 
4.7065410614

>  <CNN_VS>  (101) 
4.1691989899

>  <CNNaffinity_variance>  (101) 
0.0532597378

$$$$
102
     RDKit          3D

 43 45  0  0  0  0  0  0  0  0999 V2000
   22.8060   71.1370   -3.0056 P   0  0  2  0  0  0  0  0  0  0  0  0
   23.7968   72.1192   -3.8257 O   0  0  0  0  0  0  0  0  0  0  0  0
   23.3585   69.7703   -2.7249 O   0  0  0  0  0  0  0  0  0  0  0  0
   21.4289   71.1776   -3.8540 O   0  0  0  0  0  0  0  0  0  0  0  0
   20.4509   70.1850   -3.6034 C   0  0  0  0  0  0  0  0  0  0  0  0
   18.8407   71.5610   -4.7400 O   0  0  0  0  0  0  0  0  0  0  0  0
   16.8390   70.5310   -2.7591 O   0  0  0  0  0  0  0  0  0  0  0  0
   16.3115   69.0307   -4.9743 O   0  0  0  0  0  0  0  0  0  0  0  0
   17.9395   69.8541   -3.3669 C   0  0  1  0  0  0  0  0  0  0  0  0
   17.6225   69.5301   -4.8114 C   0  0  2  0  0  0  0  0  0  0  0  0
   19.0834   70.8492   -3.5072 C   0  0  1  0  0  0  0  0  0  0  0  0
   17.8239   70.8754   -5.4879 C   0  0  2  0  0  0  0  0  0  0  0  0
   16.0957   69.9152   -2.6590 H   0  0  0  0  0  0  0  0  0  0  0  0
   16.2343   68.1732   -4.5262 H   0  0  0  0  0  0  0  0  0  0  0  0
   16.0821   70.5620   -7.6889 O   0  0  0  0  0  0  0  0  0  0  0  0
   19.5903   70.3815  -10.6729 O   0  0  0  0  0  0  0  0  0  0  0  0
   18.2553   70.7442   -6.8508 N   0  0  0  0  0  0  0  0  0  0  0  0
   17.8311   70.4714   -9.1729 N   0  0  0  0  0  0  0  0  0  0  0  0
   17.2989   70.5913   -7.8823 C   0  0  0  0  0  0  0  0  0  0  0  0
   19.6111   70.7693   -7.1547 C   0  0  0  0  0  0  0  0  0  0  0  0
   20.1032   70.6539   -8.3897 C   0  0  0  0  0  0  0  0  0  0  0  0
   19.1711   70.4899   -9.5245 C   0  0  0  0  0  0  0  0  0  0  0  0
   17.1847   70.3619   -9.9074 H   0  0  0  0  0  0  0  0  0  0  0  0
   22.4467   72.0017   -1.6880 O   0  0  0  0  0  0  0  0  0  0  0  0
   21.9729   71.5409   -0.2126 P   0  0  2  0  0  0  0  0  0  0  0  0
   23.3067   70.8683    0.4109 O   0  0  0  0  0  0  0  0  0  0  0  0
   20.7674   70.6460   -0.2045 O   0  0  0  0  0  0  0  0  0  0  0  0
   21.7899   72.9181    0.6073 O   0  0  0  0  0  0  0  0  0  0  0  0
   22.4513   73.6914    2.7459 O   0  0  0  0  0  0  0  0  0  0  0  0
   18.6286   75.2284    2.4414 O   0  0  0  0  0  0  0  0  0  0  0  0
   19.2058   72.5068    1.5502 O   0  0  0  0  0  0  0  0  0  0  0  0
   20.9324   76.9678    2.0975 O   0  0  0  0  0  0  0  0  0  0  0  0
   19.9009   74.7946    1.9606 C   0  0  2  0  0  0  0  0  0  0  0  0
   20.1008   73.3179    2.3023 C   0  0  2  0  0  0  0  0  0  0  0  0
   20.9774   75.6476    2.6356 C   0  0  1  0  0  0  0  0  0  0  0  0
   21.5362   72.8783    2.0104 C   0  0  1  0  0  0  0  0  0  0  0  0
   22.3715   75.0728    2.4017 C   0  0  1  0  0  0  0  0  0  0  0  0
   17.9287   74.7003    2.0261 H   0  0  0  0  0  0  0  0  0  0  0  0
   18.2931   72.7804    1.7304 H   0  0  0  0  0  0  0  0  0  0  0  0
   20.0501   77.3450    2.2397 H   0  0  0  0  0  0  0  0  0  0  0  0
   23.7849   74.8186    4.2562 O   0  0  0  0  0  0  0  0  0  0  0  0
   23.7575   76.8603    3.2414 O   0  0  0  0  0  0  0  0  0  0  0  0
   23.3668   75.7052    3.3192 C   0  0  0  0  0  0  0  0  0  0  0  0
  1  4  1  0
  1 24  1  0
  1  2  1  6
  1  3  2  0
 25 28  1  0
 25 24  1  0
 25 26  1  1
 25 27  2  0
  6 11  1  0
  6 12  1  0
 29 36  1  0
 29 37  1  0
  9  7  1  6
  7 13  1  0
 10  8  1  1
  8 14  1  0
  4  5  1  0
 36 28  1  6
 33 30  1  1
 30 38  1  0
 34 31  1  6
 31 39  1  0
 35 32  1  6
 32 40  1  0
 41 43  1  0
 15 19  2  0
 42 43  2  0
 16 22  2  0
 12 17  1  6
 17 19  1  0
 17 20  1  0
 18 19  1  0
 18 22  1  0
 18 23  1  0
  9 10  1  0
  9 11  1  0
 10 12  1  0
 11  5  1  6
 33 34  1  0
 33 35  1  0
 34 36  1  0
 35 37  1  0
 37 43  1  1
 20 21  2  0
 21 22  1  0
M  CHG  3   2  -1  26  -1  41  -1
M  END
>  <COMPND>  (102) 
    udp_gluA.pdb 

>  <AUTHOR>  (102) 
    GENERATED BY OPEN BABEL 3.1.1

>  <MASTER>  (102) 
        0    0    0    0    0    0    0    0   56    0   56    0

>  <minimizedAffinity>  (102) 
-7.86729

>  <CNNscore>  (102) 
0.8041693568

>  <CNNaffinity>  (102) 
4.7767686844

>  <CNN_VS>  (102) 
3.8413310051

>  <CNNaffinity_variance>  (102) 
0.1328562200

$$$$
103
     RDKit          3D

 43 45  0  0  0  0  0  0  0  0999 V2000
   20.9101   70.1711   -1.9953 P   0  0  2  0  0  0  0  0  0  0  0  0
   21.3532   69.7675   -3.4986 O   0  0  0  0  0  0  0  0  0  0  0  0
   21.8836   69.7815   -0.9218 O   0  0  0  0  0  0  0  0  0  0  0  0
   19.4210   69.5551   -1.8506 O   0  0  0  0  0  0  0  0  0  0  0  0
   18.7141   69.2114   -3.0282 C   0  0  0  0  0  0  0  0  0  0  0  0
   17.7789   71.0517   -4.2596 O   0  0  0  0  0  0  0  0  0  0  0  0
   15.1277   70.2134   -3.1372 O   0  0  0  0  0  0  0  0  0  0  0  0
   15.0543   69.1926   -5.6648 O   0  0  0  0  0  0  0  0  0  0  0  0
   16.2312   69.4058   -3.5478 C   0  0  1  0  0  0  0  0  0  0  0  0
   16.3181   69.3662   -5.0588 C   0  0  2  0  0  0  0  0  0  0  0  0
   17.5133   70.1372   -3.1740 C   0  0  1  0  0  0  0  0  0  0  0  0
   16.9375   70.7169   -5.3746 C   0  0  2  0  0  0  0  0  0  0  0  0
   14.2970   69.7667   -3.3655 H   0  0  0  0  0  0  0  0  0  0  0  0
   14.7023   68.3181   -5.4338 H   0  0  0  0  0  0  0  0  0  0  0  0
   15.8976   70.9421   -7.9908 O   0  0  0  0  0  0  0  0  0  0  0  0
   20.0866   70.5961   -9.8819 O   0  0  0  0  0  0  0  0  0  0  0  0
   17.7339   70.6889   -6.5687 N   0  0  0  0  0  0  0  0  0  0  0  0
   17.9848   70.7685   -8.9303 N   0  0  0  0  0  0  0  0  0  0  0  0
   17.1129   70.8097   -7.8344 C   0  0  0  0  0  0  0  0  0  0  0  0
   19.1131   70.5447   -6.4793 C   0  0  0  0  0  0  0  0  0  0  0  0
   19.9312   70.5073   -7.5329 C   0  0  0  0  0  0  0  0  0  0  0  0
   19.3624   70.6261   -8.8915 C   0  0  0  0  0  0  0  0  0  0  0  0
   17.5754   70.8487   -9.8221 H   0  0  0  0  0  0  0  0  0  0  0  0
   20.6364   71.7599   -2.1119 O   0  0  0  0  0  0  0  0  0  0  0  0
   21.6485   73.0189   -2.0464 P   0  0  2  0  0  0  0  0  0  0  0  0
   23.1089   72.3213   -2.0742 O   0  0  0  0  0  0  0  0  0  0  0  0
   21.4212   73.9314   -0.8761 O   0  0  0  0  0  0  0  0  0  0  0  0
   21.5098   73.7309   -3.4873 O   0  0  0  0  0  0  0  0  0  0  0  0
   20.1647   73.0792   -5.3245 O   0  0  0  0  0  0  0  0  0  0  0  0
   23.3354   74.9303   -7.2188 O   0  0  0  0  0  0  0  0  0  0  0  0
   23.8011   73.1472   -4.9520 O   0  0  0  0  0  0  0  0  0  0  0  0
   20.7767   76.2910   -6.9894 O   0  0  0  0  0  0  0  0  0  0  0  0
   22.3957   74.7072   -6.1675 C   0  0  2  0  0  0  0  0  0  0  0  0
   22.5576   73.2852   -5.6296 C   0  0  2  0  0  0  0  0  0  0  0  0
   20.9901   74.9029   -6.7401 C   0  0  1  0  0  0  0  0  0  0  0  0
   21.4235   72.9324   -4.6661 C   0  0  1  0  0  0  0  0  0  0  0  0
   19.9199   74.4114   -5.7699 C   0  0  1  0  0  0  0  0  0  0  0  0
   24.2361   74.8114   -6.8782 H   0  0  0  0  0  0  0  0  0  0  0  0
   24.5252   73.3699   -5.5574 H   0  0  0  0  0  0  0  0  0  0  0  0
   21.4515   76.6163   -7.6055 H   0  0  0  0  0  0  0  0  0  0  0  0
   17.5905   74.2541   -5.5442 O   0  0  0  0  0  0  0  0  0  0  0  0
   18.4325   74.2545   -7.6632 O   0  0  0  0  0  0  0  0  0  0  0  0
   18.5959   74.2986   -6.4531 C   0  0  0  0  0  0  0  0  0  0  0  0
  1  4  1  0
  1 24  1  0
  1  2  1  6
  1  3  2  0
 25 28  1  0
 25 24  1  0
 25 26  1  1
 25 27  2  0
  6 11  1  0
  6 12  1  0
 29 36  1  0
 29 37  1  0
  9  7  1  6
  7 13  1  0
 10  8  1  6
  8 14  1  0
  4  5  1  0
 36 28  1  1
 33 30  1  6
 30 38  1  0
 34 31  1  1
 31 39  1  0
 35 32  1  1
 32 40  1  0
 41 43  1  0
 15 19  2  0
 42 43  2  0
 16 22  2  0
 12 17  1  6
 17 19  1  0
 17 20  1  0
 18 19  1  0
 18 22  1  0
 18 23  1  0
  9 10  1  0
  9 11  1  0
 10 12  1  0
 11  5  1  6
 33 34  1  0
 33 35  1  0
 34 36  1  0
 35 37  1  0
 37 43  1  6
 20 21  2  0
 21 22  1  0
M  CHG  3   2  -1  26  -1  41  -1
M  END
>  <COMPND>  (103) 
    udp_gluA.pdb 

>  <AUTHOR>  (103) 
    GENERATED BY OPEN BABEL 3.1.1

>  <MASTER>  (103) 
        0    0    0    0    0    0    0    0   56    0   56    0

>  <minimizedAffinity>  (103) 
-7.18467

>  <CNNscore>  (103) 
0.5925699472

>  <CNNaffinity>  (103) 
4.3635129929

>  <CNN_VS>  (103) 
2.5856866837

>  <CNNaffinity_variance>  (103) 
0.8678109050

$$$$
104
     RDKit          3D

 43 45  0  0  0  0  0  0  0  0999 V2000
   23.3336   70.7307   -2.2601 P   0  0  2  0  0  0  0  0  0  0  0  0
   23.6892   71.5813   -3.5901 O   0  0  0  0  0  0  0  0  0  0  0  0
   24.4989   70.0291   -1.6264 O   0  0  0  0  0  0  0  0  0  0  0  0
   22.1083   69.7806   -2.7226 O   0  0  0  0  0  0  0  0  0  0  0  0
   21.2969   70.2019   -3.8037 C   0  0  0  0  0  0  0  0  0  0  0  0
   19.1396   71.1298   -4.3160 O   0  0  0  0  0  0  0  0  0  0  0  0
   18.0652   69.3406   -2.1628 O   0  0  0  0  0  0  0  0  0  0  0  0
   17.4197   67.9864   -4.4399 O   0  0  0  0  0  0  0  0  0  0  0  0
   19.1160   69.0980   -3.0985 C   0  0  1  0  0  0  0  0  0  0  0  0
   18.5423   68.8426   -4.4762 C   0  0  2  0  0  0  0  0  0  0  0  0
   19.8717   70.4035   -3.3051 C   0  0  1  0  0  0  0  0  0  0  0  0
   18.1918   70.2471   -4.9372 C   0  0  2  0  0  0  0  0  0  0  0  0
   17.5680   68.5206   -2.0146 H   0  0  0  0  0  0  0  0  0  0  0  0
   17.6949   67.1050   -4.1407 H   0  0  0  0  0  0  0  0  0  0  0  0
   16.0262   69.8956   -6.7157 O   0  0  0  0  0  0  0  0  0  0  0  0
   18.6504   70.8373  -10.3860 O   0  0  0  0  0  0  0  0  0  0  0  0
   18.2812   70.3943   -6.3624 N   0  0  0  0  0  0  0  0  0  0  0  0
   17.3355   70.3639   -8.5421 N   0  0  0  0  0  0  0  0  0  0  0  0
   17.1336   70.1955   -7.1659 C   0  0  0  0  0  0  0  0  0  0  0  0
   19.4940   70.7333   -6.9499 C   0  0  0  0  0  0  0  0  0  0  0  0
   19.6709   70.8904   -8.2632 C   0  0  0  0  0  0  0  0  0  0  0  0
   18.5223   70.7000   -9.1731 C   0  0  0  0  0  0  0  0  0  0  0  0
   16.5515   70.2287   -9.1220 H   0  0  0  0  0  0  0  0  0  0  0  0
   22.6094   71.8228   -1.3137 O   0  0  0  0  0  0  0  0  0  0  0  0
   21.8014   71.6535    0.0764 P   0  0  2  0  0  0  0  0  0  0  0  0
   22.9386   71.1330    1.1041 O   0  0  0  0  0  0  0  0  0  0  0  0
   20.5969   70.7622   -0.0162 O   0  0  0  0  0  0  0  0  0  0  0  0
   21.4831   73.1620    0.5512 O   0  0  0  0  0  0  0  0  0  0  0  0
   22.7370   75.1661    0.4071 O   0  0  0  0  0  0  0  0  0  0  0  0
   20.8085   75.6396    4.0299 O   0  0  0  0  0  0  0  0  0  0  0  0
   21.9567   73.0573    3.2899 O   0  0  0  0  0  0  0  0  0  0  0  0
   19.8986   77.1051    1.6900 O   0  0  0  0  0  0  0  0  0  0  0  0
   20.9625   75.1861    2.6851 C   0  0  2  0  0  0  0  0  0  0  0  0
   22.1861   74.2744    2.5894 C   0  0  2  0  0  0  0  0  0  0  0  0
   21.1423   76.4139    1.7895 C   0  0  1  0  0  0  0  0  0  0  0  0
   22.5175   73.9548    1.1310 C   0  0  1  0  0  0  0  0  0  0  0  0
   21.5944   76.0189    0.3867 C   0  0  1  0  0  0  0  0  0  0  0  0
   20.6927   74.8763    4.6175 H   0  0  0  0  0  0  0  0  0  0  0  0
   21.7456   73.2526    4.2160 H   0  0  0  0  0  0  0  0  0  0  0  0
   19.5996   77.3620    2.5762 H   0  0  0  0  0  0  0  0  0  0  0  0
   23.4234   77.1538   -0.5451 O   0  0  0  0  0  0  0  0  0  0  0  0
   21.3710   78.1190   -0.7799 O   0  0  0  0  0  0  0  0  0  0  0  0
   22.0800   77.2123   -0.3699 C   0  0  0  0  0  0  0  0  0  0  0  0
  1  4  1  0
  1 24  1  0
  1  2  1  6
  1  3  2  0
 25 28  1  0
 25 24  1  0
 25 26  1  1
 25 27  2  0
  6 11  1  0
  6 12  1  0
 29 36  1  0
 29 37  1  0
  9  7  1  1
  7 13  1  0
 10  8  1  1
  8 14  1  0
  4  5  1  0
 36 28  1  6
 33 30  1  1
 30 38  1  0
 34 31  1  1
 31 39  1  0
 35 32  1  6
 32 40  1  0
 41 43  1  0
 15 19  2  0
 42 43  2  0
 16 22  2  0
 12 17  1  6
 17 19  1  0
 17 20  1  0
 18 19  1  0
 18 22  1  0
 18 23  1  0
  9 10  1  0
  9 11  1  0
 10 12  1  0
 11  5  1  6
 33 34  1  0
 33 35  1  0
 34 36  1  0
 35 37  1  0
 37 43  1  6
 20 21  2  0
 21 22  1  0
M  CHG  3   2  -1  26  -1  41  -1
M  END
>  <COMPND>  (104) 
    udp_gluA.pdb 

>  <AUTHOR>  (104) 
    GENERATED BY OPEN BABEL 3.1.1

>  <MASTER>  (104) 
        0    0    0    0    0    0    0    0   56    0   56    0

>  <minimizedAffinity>  (104) 
-8.00463

>  <CNNscore>  (104) 
0.5396893620

>  <CNNaffinity>  (104) 
4.6138544083

>  <CNN_VS>  (104) 
2.4900481701

>  <CNNaffinity_variance>  (104) 
0.0718003586

$$$$
105
     RDKit          3D

 43 45  0  0  0  0  0  0  0  0999 V2000
   22.6677   72.9568   -4.0827 P   0  0  2  0  0  0  0  0  0  0  0  0
   24.1792   72.9330   -4.6606 O   0  0  0  0  0  0  0  0  0  0  0  0
   22.3320   74.1490   -3.2357 O   0  0  0  0  0  0  0  0  0  0  0  0
   22.5037   71.5161   -3.3647 O   0  0  0  0  0  0  0  0  0  0  0  0
   23.3172   71.2228   -2.2437 C   0  0  0  0  0  0  0  0  0  0  0  0
   22.8287   71.0064    0.0999 O   0  0  0  0  0  0  0  0  0  0  0  0
   20.3030   69.6279   -0.7440 O   0  0  0  0  0  0  0  0  0  0  0  0
   19.4360   72.1410   -0.1368 O   0  0  0  0  0  0  0  0  0  0  0  0
   20.9851   70.7208   -1.3596 C   0  0  1  0  0  0  0  0  0  0  0  0
   20.7752   71.9880   -0.5582 C   0  0  2  0  0  0  0  0  0  0  0  0
   22.4817   70.4888   -1.2028 C   0  0  1  0  0  0  0  0  0  0  0  0
   21.7345   71.7894    0.6029 C   0  0  2  0  0  0  0  0  0  0  0  0
   19.3448   69.7538   -0.8314 H   0  0  0  0  0  0  0  0  0  0  0  0
   18.8652   72.2646   -0.9120 H   0  0  0  0  0  0  0  0  0  0  0  0
   21.8860   72.4479    3.3452 O   0  0  0  0  0  0  0  0  0  0  0  0
   23.7074   76.5837    2.4387 O   0  0  0  0  0  0  0  0  0  0  0  0
   22.2441   73.0314    1.1114 N   0  0  0  0  0  0  0  0  0  0  0  0
   22.7921   74.5075    2.8910 N   0  0  0  0  0  0  0  0  0  0  0  0
   22.2763   73.2627    2.5069 C   0  0  0  0  0  0  0  0  0  0  0  0
   22.7061   74.0034    0.2323 C   0  0  0  0  0  0  0  0  0  0  0  0
   23.1950   75.1851    0.6134 C   0  0  0  0  0  0  0  0  0  0  0  0
   23.2628   75.5063    2.0541 C   0  0  0  0  0  0  0  0  0  0  0  0
   22.8227   74.6923    3.8576 H   0  0  0  0  0  0  0  0  0  0  0  0
   21.7670   72.8029   -5.4161 O   0  0  0  0  0  0  0  0  0  0  0  0
   20.4025   73.5437   -5.8665 P   0  0  2  0  0  0  0  0  0  0  0  0
   20.9333   74.9048   -6.5636 O   0  0  0  0  0  0  0  0  0  0  0  0
   19.4229   73.7621   -4.7500 O   0  0  0  0  0  0  0  0  0  0  0  0
   19.8379   72.6541   -7.0881 O   0  0  0  0  0  0  0  0  0  0  0  0
   19.0675   70.6759   -6.0380 O   0  0  0  0  0  0  0  0  0  0  0  0
   17.8243   70.0977   -9.9352 O   0  0  0  0  0  0  0  0  0  0  0  0
   20.4707   71.2000   -9.3731 O   0  0  0  0  0  0  0  0  0  0  0  0
   15.9039   70.8540   -7.8879 O   0  0  0  0  0  0  0  0  0  0  0  0
   18.1464   70.8553   -8.7689 C   0  0  2  0  0  0  0  0  0  0  0  0
   19.6111   70.6237   -8.3966 C   0  0  2  0  0  0  0  0  0  0  0  0
   17.2292   70.3912   -7.6352 C   0  0  1  0  0  0  0  0  0  0  0  0
   19.9310   71.2318   -7.0303 C   0  0  1  0  0  0  0  0  0  0  0  0
   17.6885   70.9394   -6.2872 C   0  0  1  0  0  0  0  0  0  0  0  0
   18.3948   70.3754  -10.6691 H   0  0  0  0  0  0  0  0  0  0  0  0
   20.2730   70.8188  -10.2426 H   0  0  0  0  0  0  0  0  0  0  0  0
   15.5997   70.5122   -8.7432 H   0  0  0  0  0  0  0  0  0  0  0  0
   17.1590   70.9110   -4.0024 O   0  0  0  0  0  0  0  0  0  0  0  0
   16.3839   69.1824   -5.2713 O   0  0  0  0  0  0  0  0  0  0  0  0
   17.0033   70.2302   -5.1648 C   0  0  0  0  0  0  0  0  0  0  0  0
  1  4  1  0
  1 24  1  0
  1  2  1  6
  1  3  2  0
 25 28  1  0
 25 24  1  0
 25 26  1  6
 25 27  2  0
  6 11  1  0
  6 12  1  0
 29 36  1  0
 29 37  1  0
  9  7  1  1
  7 13  1  0
 10  8  1  1
  8 14  1  0
  4  5  1  0
 36 28  1  6
 33 30  1  6
 30 38  1  0
 34 31  1  6
 31 39  1  0
 35 32  1  6
 32 40  1  0
 41 43  1  0
 15 19  2  0
 42 43  2  0
 16 22  2  0
 12 17  1  6
 17 19  1  0
 17 20  1  0
 18 19  1  0
 18 22  1  0
 18 23  1  0
  9 10  1  0
  9 11  1  0
 10 12  1  0
 11  5  1  6
 33 34  1  0
 33 35  1  0
 34 36  1  0
 35 37  1  0
 37 43  1  1
 20 21  2  0
 21 22  1  0
M  CHG  3   2  -1  26  -1  41  -1
M  END
>  <COMPND>  (105) 
    udp_gluA.pdb 

>  <AUTHOR>  (105) 
    GENERATED BY OPEN BABEL 3.1.1

>  <MASTER>  (105) 
        0    0    0    0    0    0    0    0   56    0   56    0

>  <minimizedAffinity>  (105) 
-8.66565

>  <CNNscore>  (105) 
0.5014298558

>  <CNNaffinity>  (105) 
4.2217307091

>  <CNN_VS>  (105) 
2.1169018745

>  <CNNaffinity_variance>  (105) 
0.2043369263

$$$$
106
     RDKit          3D

 43 45  0  0  0  0  0  0  0  0999 V2000
   19.4425   69.9904   -2.2146 P   0  0  2  0  0  0  0  0  0  0  0  0
   19.9282   69.3763   -0.7983 O   0  0  0  0  0  0  0  0  0  0  0  0
   20.5334   70.1923   -3.2251 O   0  0  0  0  0  0  0  0  0  0  0  0
   18.6151   71.3174   -1.7994 O   0  0  0  0  0  0  0  0  0  0  0  0
   18.9064   72.5320   -2.4659 C   0  0  0  0  0  0  0  0  0  0  0  0
   20.1119   72.9702   -0.4331 O   0  0  0  0  0  0  0  0  0  0  0  0
   19.9156   75.8723   -1.1613 O   0  0  0  0  0  0  0  0  0  0  0  0
   22.4652   75.2445   -1.8972 O   0  0  0  0  0  0  0  0  0  0  0  0
   20.0898   74.7375   -2.0101 C   0  0  1  0  0  0  0  0  0  0  0  0
   21.5042   74.2096   -1.8956 C   0  0  2  0  0  0  0  0  0  0  0  0
   19.2735   73.5893   -1.4326 C   0  0  1  0  0  0  0  0  0  0  0  0
   21.4550   73.4594   -0.5755 C   0  0  2  0  0  0  0  0  0  0  0  0
   20.4280   76.6190   -1.5101 H   0  0  0  0  0  0  0  0  0  0  0  0
   22.4578   75.6913   -2.7588 H   0  0  0  0  0  0  0  0  0  0  0  0
   22.1875   72.0672    1.7701 O   0  0  0  0  0  0  0  0  0  0  0  0
   24.9463   69.2099   -0.5686 O   0  0  0  0  0  0  0  0  0  0  0  0
   22.3628   72.3478   -0.5427 N   0  0  0  0  0  0  0  0  0  0  0  0
   23.5616   70.6461    0.6032 N   0  0  0  0  0  0  0  0  0  0  0  0
   22.6641   71.7186    0.6883 C   0  0  0  0  0  0  0  0  0  0  0  0
   22.9425   71.8908   -1.7201 C   0  0  0  0  0  0  0  0  0  0  0  0
   23.7961   70.8672   -1.7853 C   0  0  0  0  0  0  0  0  0  0  0  0
   24.1644   70.1556   -0.5438 C   0  0  0  0  0  0  0  0  0  0  0  0
   23.7883   70.1935    1.4476 H   0  0  0  0  0  0  0  0  0  0  0  0
   18.2797   68.9662   -2.6747 O   0  0  0  0  0  0  0  0  0  0  0  0
   17.3453   68.9445   -3.9938 P   0  0  2  0  0  0  0  0  0  0  0  0
   16.1931   70.0278   -3.6487 O   0  0  0  0  0  0  0  0  0  0  0  0
   16.8257   67.5838   -4.3580 O   0  0  0  0  0  0  0  0  0  0  0  0
   18.2370   69.6491   -5.1387 O   0  0  0  0  0  0  0  0  0  0  0  0
   19.0369   71.8125   -5.6760 O   0  0  0  0  0  0  0  0  0  0  0  0
   17.5815   70.5248   -9.3218 O   0  0  0  0  0  0  0  0  0  0  0  0
   16.0865   70.0105   -6.8652 O   0  0  0  0  0  0  0  0  0  0  0  0
   20.4461   70.5741   -8.8292 O   0  0  0  0  0  0  0  0  0  0  0  0
   18.1800   70.3822   -8.0336 C   0  0  2  0  0  0  0  0  0  0  0  0
   17.2101   70.8783   -6.9609 C   0  0  2  0  0  0  0  0  0  0  0  0
   19.4650   71.2130   -8.0146 C   0  0  1  0  0  0  0  0  0  0  0  0
   17.8966   70.9565   -5.5966 C   0  0  1  0  0  0  0  0  0  0  0  0
   20.0196   71.3490   -6.5994 C   0  0  1  0  0  0  0  0  0  0  0  0
   16.7629   70.0053   -9.3575 H   0  0  0  0  0  0  0  0  0  0  0  0
   15.6463   69.9559   -7.7275 H   0  0  0  0  0  0  0  0  0  0  0  0
   20.1056   70.4812   -9.7327 H   0  0  0  0  0  0  0  0  0  0  0  0
   20.5589   73.5525   -6.0034 O   0  0  0  0  0  0  0  0  0  0  0  0
   22.2202   72.2859   -6.9171 O   0  0  0  0  0  0  0  0  0  0  0  0
   21.0652   72.4145   -6.5396 C   0  0  0  0  0  0  0  0  0  0  0  0
  1  4  1  0
  1 24  1  0
  1  2  1  1
  1  3  2  0
 25 28  1  0
 25 24  1  0
 25 26  1  1
 25 27  2  0
  6 11  1  0
  6 12  1  0
 29 36  1  0
 29 37  1  0
  9  7  1  1
  7 13  1  0
 10  8  1  1
  8 14  1  0
  4  5  1  0
 36 28  1  6
 33 30  1  6
 30 38  1  0
 34 31  1  1
 31 39  1  0
 35 32  1  6
 32 40  1  0
 41 43  1  0
 15 19  2  0
 42 43  2  0
 16 22  2  0
 12 17  1  6
 17 19  1  0
 17 20  1  0
 18 19  1  0
 18 22  1  0
 18 23  1  0
  9 10  1  0
  9 11  1  0
 10 12  1  0
 11  5  1  6
 33 34  1  0
 33 35  1  0
 34 36  1  0
 35 37  1  0
 37 43  1  6
 20 21  2  0
 21 22  1  0
M  CHG  3   2  -1  26  -1  41  -1
M  END
>  <COMPND>  (106) 
    udp_gluA.pdb 

>  <AUTHOR>  (106) 
    GENERATED BY OPEN BABEL 3.1.1

>  <MASTER>  (106) 
        0    0    0    0    0    0    0    0   56    0   56    0

>  <minimizedAffinity>  (106) 
-8.24232

>  <CNNscore>  (106) 
0.4767118096

>  <CNNaffinity>  (106) 
4.4192028046

>  <CNN_VS>  (106) 
2.1066861153

>  <CNNaffinity_variance>  (106) 
0.2529567182

$$$$
107
     RDKit          3D

 43 45  0  0  0  0  0  0  0  0999 V2000
   20.9003   70.3455   -1.8809 P   0  0  2  0  0  0  0  0  0  0  0  0
   21.1259   70.3870   -3.4829 O   0  0  0  0  0  0  0  0  0  0  0  0
   21.9643   69.6208   -1.1098 O   0  0  0  0  0  0  0  0  0  0  0  0
   19.3972   69.7701   -1.7150 O   0  0  0  0  0  0  0  0  0  0  0  0
   18.7030   69.3480   -2.8745 C   0  0  0  0  0  0  0  0  0  0  0  0
   17.7780   71.1266   -4.2007 O   0  0  0  0  0  0  0  0  0  0  0  0
   15.1092   70.3000   -3.1119 O   0  0  0  0  0  0  0  0  0  0  0  0
   15.1113   69.1798   -5.5981 O   0  0  0  0  0  0  0  0  0  0  0  0
   16.2319   69.4908   -3.4627 C   0  0  1  0  0  0  0  0  0  0  0  0
   16.3574   69.3928   -4.9684 C   0  0  2  0  0  0  0  0  0  0  0  0
   17.4956   70.2522   -3.0866 C   0  0  1  0  0  0  0  0  0  0  0  0
   16.9689   70.7378   -5.3220 C   0  0  2  0  0  0  0  0  0  0  0  0
   14.2898   69.8343   -3.3428 H   0  0  0  0  0  0  0  0  0  0  0  0
   14.7638   68.3107   -5.3414 H   0  0  0  0  0  0  0  0  0  0  0  0
   15.9970   70.8891   -7.9695 O   0  0  0  0  0  0  0  0  0  0  0  0
   20.2318   70.4771   -9.7417 O   0  0  0  0  0  0  0  0  0  0  0  0
   17.7955   70.6727   -6.4940 N   0  0  0  0  0  0  0  0  0  0  0  0
   18.1070   70.6827   -8.8496 N   0  0  0  0  0  0  0  0  0  0  0  0
   17.2074   70.7582   -7.7781 C   0  0  0  0  0  0  0  0  0  0  0  0
   19.1714   70.5276   -6.3651 C   0  0  0  0  0  0  0  0  0  0  0  0
   20.0160   70.4573   -7.3958 C   0  0  0  0  0  0  0  0  0  0  0  0
   19.4826   70.5379   -8.7715 C   0  0  0  0  0  0  0  0  0  0  0  0
   17.7207   70.7379   -9.7536 H   0  0  0  0  0  0  0  0  0  0  0  0
   20.7360   71.9070   -1.4970 O   0  0  0  0  0  0  0  0  0  0  0  0
   21.8316   73.0885   -1.3647 P   0  0  2  0  0  0  0  0  0  0  0  0
   23.1733   72.3004   -0.9186 O   0  0  0  0  0  0  0  0  0  0  0  0
   21.4302   74.1996   -0.4383 O   0  0  0  0  0  0  0  0  0  0  0  0
   22.1180   73.5530   -2.8828 O   0  0  0  0  0  0  0  0  0  0  0  0
   22.3677   75.7046   -3.8408 O   0  0  0  0  0  0  0  0  0  0  0  0
   20.5110   73.6342   -6.8960 O   0  0  0  0  0  0  0  0  0  0  0  0
   19.6460   73.2804   -4.1282 O   0  0  0  0  0  0  0  0  0  0  0  0
   23.3528   74.2267   -7.0514 O   0  0  0  0  0  0  0  0  0  0  0  0
   21.3631   73.7975   -5.7623 C   0  0  2  0  0  0  0  0  0  0  0  0
   20.5416   74.2931   -4.5719 C   0  0  2  0  0  0  0  0  0  0  0  0
   22.4433   74.8187   -6.1257 C   0  0  1  0  0  0  0  0  0  0  0  0
   21.4506   74.6979   -3.4106 C   0  0  1  0  0  0  0  0  0  0  0  0
   23.2239   75.2663   -4.8934 C   0  0  1  0  0  0  0  0  0  0  0  0
   19.8164   72.9894   -6.6885 H   0  0  0  0  0  0  0  0  0  0  0  0
   19.0664   73.0186   -4.8602 H   0  0  0  0  0  0  0  0  0  0  0  0
   22.8685   73.9373   -7.8404 H   0  0  0  0  0  0  0  0  0  0  0  0
   25.3023   76.1409   -5.5392 O   0  0  0  0  0  0  0  0  0  0  0  0
   23.6249   77.6328   -5.1396 O   0  0  0  0  0  0  0  0  0  0  0  0
   24.0366   76.4836   -5.1935 C   0  0  0  0  0  0  0  0  0  0  0  0
  1  4  1  0
  1 24  1  0
  1  2  1  6
  1  3  2  0
 25 28  1  0
 25 24  1  0
 25 26  1  1
 25 27  2  0
  6 11  1  0
  6 12  1  0
 29 36  1  0
 29 37  1  0
  9  7  1  6
  7 13  1  0
 10  8  1  6
  8 14  1  0
  4  5  1  0
 36 28  1  6
 33 30  1  6
 30 38  1  0
 34 31  1  1
 31 39  1  0
 35 32  1  6
 32 40  1  0
 41 43  1  0
 15 19  2  0
 42 43  2  0
 16 22  2  0
 12 17  1  6
 17 19  1  0
 17 20  1  0
 18 19  1  0
 18 22  1  0
 18 23  1  0
  9 10  1  0
  9 11  1  0
 10 12  1  0
 11  5  1  6
 33 34  1  0
 33 35  1  0
 34 36  1  0
 35 37  1  0
 37 43  1  6
 20 21  2  0
 21 22  1  0
M  CHG  3   2  -1  26  -1  41  -1
M  END
>  <COMPND>  (107) 
    udp_gluA.pdb 

>  <AUTHOR>  (107) 
    GENERATED BY OPEN BABEL 3.1.1

>  <MASTER>  (107) 
        0    0    0    0    0    0    0    0   56    0   56    0

>  <minimizedAffinity>  (107) 
-6.78181

>  <CNNscore>  (107) 
0.4545764923

>  <CNNaffinity>  (107) 
4.3402929306

>  <CNN_VS>  (107) 
1.9729951620

>  <CNNaffinity_variance>  (107) 
0.2540358603

$$$$
108
     RDKit          3D

 43 45  0  0  0  0  0  0  0  0999 V2000
   16.9862   74.7141   -2.9348 P   0  0  2  0  0  0  0  0  0  0  0  0
   15.5182   74.0391   -2.8432 O   0  0  0  0  0  0  0  0  0  0  0  0
   17.0007   76.1368   -3.4116 O   0  0  0  0  0  0  0  0  0  0  0  0
   17.8408   73.6665   -3.8236 O   0  0  0  0  0  0  0  0  0  0  0  0
   18.8402   72.8945   -3.1836 C   0  0  0  0  0  0  0  0  0  0  0  0
   17.5733   71.0643   -4.0907 O   0  0  0  0  0  0  0  0  0  0  0  0
   18.8136   69.3830   -1.9398 O   0  0  0  0  0  0  0  0  0  0  0  0
   20.2964   68.7325   -4.1340 O   0  0  0  0  0  0  0  0  0  0  0  0
   19.3823   70.4590   -2.6864 C   0  0  1  0  0  0  0  0  0  0  0  0
   19.6950   70.0098   -4.0980 C   0  0  2  0  0  0  0  0  0  0  0  0
   18.2934   71.4980   -2.9166 C   0  0  1  0  0  0  0  0  0  0  0  0
   18.3213   70.0279   -4.7464 C   0  0  2  0  0  0  0  0  0  0  0  0
   19.4907   68.7064   -1.7804 H   0  0  0  0  0  0  0  0  0  0  0  0
   21.1682   68.7735   -3.7095 H   0  0  0  0  0  0  0  0  0  0  0  0
   16.1578   69.7112   -6.5339 O   0  0  0  0  0  0  0  0  0  0  0  0
   18.6700   71.1562  -10.1179 O   0  0  0  0  0  0  0  0  0  0  0  0
   18.3824   70.3140   -6.1518 N   0  0  0  0  0  0  0  0  0  0  0  0
   17.4114   70.4302   -8.3174 N   0  0  0  0  0  0  0  0  0  0  0  0
   17.2385   70.1207   -6.9619 C   0  0  0  0  0  0  0  0  0  0  0  0
   19.5642   70.7818   -6.7136 C   0  0  0  0  0  0  0  0  0  0  0  0
   19.7136   71.0727   -8.0074 C   0  0  0  0  0  0  0  0  0  0  0  0
   18.5668   70.8975   -8.9226 C   0  0  0  0  0  0  0  0  0  0  0  0
   16.6294   70.3017   -8.9017 H   0  0  0  0  0  0  0  0  0  0  0  0
   17.5791   74.4965   -1.4468 O   0  0  0  0  0  0  0  0  0  0  0  0
   17.0744   75.0454   -0.0124 P   0  0  2  0  0  0  0  0  0  0  0  0
   16.2153   73.8062    0.5764 O   0  0  0  0  0  0  0  0  0  0  0  0
   16.3220   76.3429   -0.0795 O   0  0  0  0  0  0  0  0  0  0  0  0
   18.4040   75.0890    0.9001 O   0  0  0  0  0  0  0  0  0  0  0  0
   19.3532   72.9749    1.3885 O   0  0  0  0  0  0  0  0  0  0  0  0
   21.4724   75.4540    3.9245 O   0  0  0  0  0  0  0  0  0  0  0  0
   18.5915   75.7981    3.5830 O   0  0  0  0  0  0  0  0  0  0  0  0
   22.7144   74.4421    1.4988 O   0  0  0  0  0  0  0  0  0  0  0  0
   20.7581   75.1062    2.7384 C   0  0  2  0  0  0  0  0  0  0  0  0
   19.3348   74.6836    3.1035 C   0  0  2  0  0  0  0  0  0  0  0  0
   21.4993   73.9510    2.0616 C   0  0  1  0  0  0  0  0  0  0  0  0
   18.6139   74.0873    1.8937 C   0  0  1  0  0  0  0  0  0  0  0  0
   20.6623   73.3286    0.9478 C   0  0  1  0  0  0  0  0  0  0  0  0
   21.0197   76.1863    4.3718 H   0  0  0  0  0  0  0  0  0  0  0  0
   19.0434   76.1815    4.3505 H   0  0  0  0  0  0  0  0  0  0  0  0
   23.2563   74.8410    2.1973 H   0  0  0  0  0  0  0  0  0  0  0  0
   20.2635   71.0823    0.4032 O   0  0  0  0  0  0  0  0  0  0  0  0
   22.4223   71.8093    0.3031 O   0  0  0  0  0  0  0  0  0  0  0  0
   21.2382   72.0177    0.5208 C   0  0  0  0  0  0  0  0  0  0  0  0
  1  4  1  0
  1 24  1  0
  1  2  1  1
  1  3  2  0
 25 28  1  0
 25 24  1  0
 25 26  1  1
 25 27  2  0
  6 11  1  0
  6 12  1  0
 29 36  1  0
 29 37  1  0
  9  7  1  1
  7 13  1  0
 10  8  1  1
  8 14  1  0
  4  5  1  0
 36 28  1  6
 33 30  1  1
 30 38  1  0
 34 31  1  6
 31 39  1  0
 35 32  1  6
 32 40  1  0
 41 43  1  0
 15 19  2  0
 42 43  2  0
 16 22  2  0
 12 17  1  6
 17 19  1  0
 17 20  1  0
 18 19  1  0
 18 22  1  0
 18 23  1  0
  9 10  1  0
  9 11  1  0
 10 12  1  0
 11  5  1  6
 33 34  1  0
 33 35  1  0
 34 36  1  0
 35 37  1  0
 37 43  1  1
 20 21  2  0
 21 22  1  0
M  CHG  3   2  -1  26  -1  41  -1
M  END
>  <COMPND>  (108) 
    udp_gluA.pdb 

>  <AUTHOR>  (108) 
    GENERATED BY OPEN BABEL 3.1.1

>  <MASTER>  (108) 
        0    0    0    0    0    0    0    0   56    0   56    0

>  <minimizedAffinity>  (108) 
-6.58247

>  <CNNscore>  (108) 
0.4210802317

>  <CNNaffinity>  (108) 
4.1806745529

>  <CNN_VS>  (108) 
1.7603994608

>  <CNNaffinity_variance>  (108) 
0.1377854049

$$$$
109
     RDKit          3D

 43 45  0  0  0  0  0  0  0  0999 V2000
   19.5895   69.7458   -2.0084 P   0  0  2  0  0  0  0  0  0  0  0  0
   18.7754   71.1434   -2.0580 O   0  0  0  0  0  0  0  0  0  0  0  0
   19.9238   69.2558   -0.6300 O   0  0  0  0  0  0  0  0  0  0  0  0
   20.8510   69.9960   -2.9902 O   0  0  0  0  0  0  0  0  0  0  0  0
   21.2517   71.3288   -3.2500 C   0  0  0  0  0  0  0  0  0  0  0  0
   22.9469   72.5784   -2.0912 O   0  0  0  0  0  0  0  0  0  0  0  0
   24.7374   70.2170   -2.5487 O   0  0  0  0  0  0  0  0  0  0  0  0
   23.9718   69.8900    0.0480 O   0  0  0  0  0  0  0  0  0  0  0  0
   23.3372   70.2490   -2.2716 C   0  0  1  0  0  0  0  0  0  0  0  0
   23.0987   70.5877   -0.8154 C   0  0  2  0  0  0  0  0  0  0  0  0
   22.7454   71.4592   -2.9812 C   0  0  1  0  0  0  0  0  0  0  0  0
   23.3347   72.0884   -0.7979 C   0  0  2  0  0  0  0  0  0  0  0  0
   25.1376   69.4520   -2.1057 H   0  0  0  0  0  0  0  0  0  0  0  0
   23.7816   68.9394    0.0011 H   0  0  0  0  0  0  0  0  0  0  0  0
   23.6934   74.7810   -0.0248 O   0  0  0  0  0  0  0  0  0  0  0  0
   20.2846   74.5379    3.0679 O   0  0  0  0  0  0  0  0  0  0  0  0
   22.5548   72.7541    0.2068 N   0  0  0  0  0  0  0  0  0  0  0  0
   21.9960   74.6570    1.5155 N   0  0  0  0  0  0  0  0  0  0  0  0
   22.8160   74.1089    0.5205 C   0  0  0  0  0  0  0  0  0  0  0  0
   21.5439   72.0673    0.8681 C   0  0  0  0  0  0  0  0  0  0  0  0
   20.7705   72.6033    1.8144 C   0  0  0  0  0  0  0  0  0  0  0  0
   20.9787   74.0139    2.2019 C   0  0  0  0  0  0  0  0  0  0  0  0
   22.1603   75.5984    1.7525 H   0  0  0  0  0  0  0  0  0  0  0  0
   18.6518   68.7489   -2.8685 O   0  0  0  0  0  0  0  0  0  0  0  0
   17.5663   69.0494   -4.0282 P   0  0  2  0  0  0  0  0  0  0  0  0
   16.6017   70.1603   -3.3529 O   0  0  0  0  0  0  0  0  0  0  0  0
   16.8484   67.8303   -4.5306 O   0  0  0  0  0  0  0  0  0  0  0  0
   18.3874   69.8561   -5.1584 O   0  0  0  0  0  0  0  0  0  0  0  0
   18.9593   72.0935   -5.6841 O   0  0  0  0  0  0  0  0  0  0  0  0
   17.6379   70.6833   -9.3356 O   0  0  0  0  0  0  0  0  0  0  0  0
   16.2082   70.0037   -6.8803 O   0  0  0  0  0  0  0  0  0  0  0  0
   20.4830   71.0247   -8.8461 O   0  0  0  0  0  0  0  0  0  0  0  0
   18.2502   70.5958   -8.0489 C   0  0  2  0  0  0  0  0  0  0  0  0
   17.2362   70.9832   -6.9722 C   0  0  2  0  0  0  0  0  0  0  0  0
   19.4428   71.5545   -8.0265 C   0  0  1  0  0  0  0  0  0  0  0  0
   17.9134   71.1240   -5.6083 C   0  0  1  0  0  0  0  0  0  0  0  0
   19.9828   71.7389   -6.6113 C   0  0  1  0  0  0  0  0  0  0  0  0
   16.8771   70.0824   -9.3733 H   0  0  0  0  0  0  0  0  0  0  0  0
   15.7744   69.9090   -7.7424 H   0  0  0  0  0  0  0  0  0  0  0  0
   20.1522   70.9024   -9.7496 H   0  0  0  0  0  0  0  0  0  0  0  0
   22.2018   72.4977   -6.6553 O   0  0  0  0  0  0  0  0  0  0  0  0
   20.5690   74.0712   -6.4161 O   0  0  0  0  0  0  0  0  0  0  0  0
   20.9132   72.9061   -6.5465 C   0  0  0  0  0  0  0  0  0  0  0  0
  1  4  1  0
  1 24  1  0
  1  2  1  1
  1  3  2  0
 25 28  1  0
 25 24  1  0
 25 26  1  1
 25 27  2  0
  6 11  1  0
  6 12  1  0
 29 36  1  0
 29 37  1  0
  9  7  1  1
  7 13  1  0
 10  8  1  1
  8 14  1  0
  4  5  1  0
 36 28  1  6
 33 30  1  6
 30 38  1  0
 34 31  1  1
 31 39  1  0
 35 32  1  6
 32 40  1  0
 41 43  1  0
 15 19  2  0
 42 43  2  0
 16 22  2  0
 12 17  1  1
 17 19  1  0
 17 20  1  0
 18 19  1  0
 18 22  1  0
 18 23  1  0
  9 10  1  0
  9 11  1  0
 10 12  1  0
 11  5  1  1
 33 34  1  0
 33 35  1  0
 34 36  1  0
 35 37  1  0
 37 43  1  6
 20 21  2  0
 21 22  1  0
M  CHG  3   2  -1  26  -1  41  -1
M  END
>  <COMPND>  (109) 
    udp_gluA.pdb 

>  <AUTHOR>  (109) 
    GENERATED BY OPEN BABEL 3.1.1

>  <MASTER>  (109) 
        0    0    0    0    0    0    0    0   56    0   56    0

>  <minimizedAffinity>  (109) 
-8.89143

>  <CNNscore>  (109) 
0.4174517095

>  <CNNaffinity>  (109) 
4.2585959435

>  <CNN_VS>  (109) 
1.7777581215

>  <CNNaffinity_variance>  (109) 
0.1991133243

$$$$
110
     RDKit          3D

 43 45  0  0  0  0  0  0  0  0999 V2000
   21.6889   70.6617   -2.8913 P   0  0  2  0  0  0  0  0  0  0  0  0
   20.5443   69.5313   -3.0681 O   0  0  0  0  0  0  0  0  0  0  0  0
   23.0832   70.1314   -2.7284 O   0  0  0  0  0  0  0  0  0  0  0  0
   21.1413   71.5828   -1.6790 O   0  0  0  0  0  0  0  0  0  0  0  0
   22.0263   71.9054   -0.6220 C   0  0  0  0  0  0  0  0  0  0  0  0
   22.0637   72.5418    1.6956 O   0  0  0  0  0  0  0  0  0  0  0  0
   19.0896   72.1615    1.6557 O   0  0  0  0  0  0  0  0  0  0  0  0
   19.3464   74.8699    1.4698 O   0  0  0  0  0  0  0  0  0  0  0  0
   19.9496   72.6675    0.6345 C   0  0  1  0  0  0  0  0  0  0  0  0
   20.4021   74.0708    0.9782 C   0  0  2  0  0  0  0  0  0  0  0  0
   21.2565   71.8883    0.6923 C   0  0  1  0  0  0  0  0  0  0  0  0
   21.4735   73.8098    2.0230 C   0  0  2  0  0  0  0  0  0  0  0  0
   18.2479   72.6441    1.6386 H   0  0  0  0  0  0  0  0  0  0  0  0
   18.6909   75.0074    0.7675 H   0  0  0  0  0  0  0  0  0  0  0  0
   22.8841   74.6543    4.3195 O   0  0  0  0  0  0  0  0  0  0  0  0
   25.3816   77.6774    1.8973 O   0  0  0  0  0  0  0  0  0  0  0  0
   22.4975   74.8159    2.0210 N   0  0  0  0  0  0  0  0  0  0  0  0
   24.1259   76.1599    3.1111 N   0  0  0  0  0  0  0  0  0  0  0  0
   23.1445   75.1670    3.2294 C   0  0  0  0  0  0  0  0  0  0  0  0
   22.8526   75.4418    0.8322 C   0  0  0  0  0  0  0  0  0  0  0  0
   23.7901   76.3864    0.7352 C   0  0  0  0  0  0  0  0  0  0  0  0
   24.5134   76.8117    1.9515 C   0  0  0  0  0  0  0  0  0  0  0  0
   24.5888   76.4226    3.9394 H   0  0  0  0  0  0  0  0  0  0  0  0
   21.4735   71.6022   -4.1882 O   0  0  0  0  0  0  0  0  0  0  0  0
   20.2466   72.5682   -4.6068 P   0  0  2  0  0  0  0  0  0  0  0  0
   20.9476   74.0216   -4.7354 O   0  0  0  0  0  0  0  0  0  0  0  0
   19.0798   72.5258   -3.6630 O   0  0  0  0  0  0  0  0  0  0  0  0
   19.8955   72.1497   -6.1247 O   0  0  0  0  0  0  0  0  0  0  0  0
   18.9905   69.9796   -5.8406 O   0  0  0  0  0  0  0  0  0  0  0  0
   18.1647   70.7205   -9.8202 O   0  0  0  0  0  0  0  0  0  0  0  0
   20.7502   71.4635   -8.6810 O   0  0  0  0  0  0  0  0  0  0  0  0
   16.0462   70.8808   -7.8359 O   0  0  0  0  0  0  0  0  0  0  0  0
   18.3701   71.0551   -8.4476 C   0  0  2  0  0  0  0  0  0  0  0  0
   19.7831   70.6493   -8.0279 C   0  0  2  0  0  0  0  0  0  0  0  0
   17.3304   70.3003   -7.6162 C   0  0  1  0  0  0  0  0  0  0  0  0
   19.9628   70.7793   -6.5147 C   0  0  1  0  0  0  0  0  0  0  0  0
   17.6498   70.3726   -6.1258 C   0  0  1  0  0  0  0  0  0  0  0  0
   18.8143   71.1887  -10.3680 H   0  0  0  0  0  0  0  0  0  0  0  0
   20.6417   71.3861   -9.6415 H   0  0  0  0  0  0  0  0  0  0  0  0
   15.8309   70.8412   -8.7809 H   0  0  0  0  0  0  0  0  0  0  0  0
   17.6425   68.5612   -4.6357 O   0  0  0  0  0  0  0  0  0  0  0  0
   15.6191   69.3058   -5.3778 O   0  0  0  0  0  0  0  0  0  0  0  0
   16.8387   69.3782   -5.3606 C   0  0  0  0  0  0  0  0  0  0  0  0
  1  4  1  0
  1 24  1  0
  1  2  1  6
  1  3  2  0
 25 28  1  0
 25 24  1  0
 25 26  1  6
 25 27  2  0
  6 11  1  0
  6 12  1  0
 29 36  1  0
 29 37  1  0
  9  7  1  1
  7 13  1  0
 10  8  1  1
  8 14  1  0
  4  5  1  0
 36 28  1  1
 33 30  1  6
 30 38  1  0
 34 31  1  6
 31 39  1  0
 35 32  1  1
 32 40  1  0
 41 43  1  0
 15 19  2  0
 42 43  2  0
 16 22  2  0
 12 17  1  6
 17 19  1  0
 17 20  1  0
 18 19  1  0
 18 22  1  0
 18 23  1  0
  9 10  1  0
  9 11  1  0
 10 12  1  0
 11  5  1  6
 33 34  1  0
 33 35  1  0
 34 36  1  0
 35 37  1  0
 37 43  1  1
 20 21  2  0
 21 22  1  0
M  CHG  3   2  -1  26  -1  41  -1
M  END
>  <COMPND>  (110) 
    udp_gluA.pdb 

>  <AUTHOR>  (110) 
    GENERATED BY OPEN BABEL 3.1.1

>  <MASTER>  (110) 
        0    0    0    0    0    0    0    0   56    0   56    0

>  <minimizedAffinity>  (110) 
-7.78217

>  <CNNscore>  (110) 
0.4101537466

>  <CNNaffinity>  (110) 
4.1405067444

>  <CNN_VS>  (110) 
1.6982443333

>  <CNNaffinity_variance>  (110) 
0.0225300752

$$$$
111
     RDKit          3D

 43 45  0  0  0  0  0  0  0  0999 V2000
   20.9533   75.2632   -5.4378 P   0  0  2  0  0  0  0  0  0  0  0  0
   19.8311   76.4272   -5.5060 O   0  0  0  0  0  0  0  0  0  0  0  0
   22.2245   75.5646   -6.1759 O   0  0  0  0  0  0  0  0  0  0  0  0
   20.1632   73.9335   -5.9131 O   0  0  0  0  0  0  0  0  0  0  0  0
   20.9049   72.7469   -6.1279 C   0  0  0  0  0  0  0  0  0  0  0  0
   19.9374   70.7278   -7.0025 O   0  0  0  0  0  0  0  0  0  0  0  0
   19.0897   72.3758   -9.3598 O   0  0  0  0  0  0  0  0  0  0  0  0
   16.7933   72.1986   -7.9000 O   0  0  0  0  0  0  0  0  0  0  0  0
   19.1623   72.7407   -7.9814 C   0  0  1  0  0  0  0  0  0  0  0  0
   18.0228   72.1078   -7.2110 C   0  0  2  0  0  0  0  0  0  0  0  0
   20.3776   72.0514   -7.3763 C   0  0  1  0  0  0  0  0  0  0  0  0
   18.5031   70.6746   -7.0583 C   0  0  2  0  0  0  0  0  0  0  0  0
   18.3207   72.8043   -9.7681 H   0  0  0  0  0  0  0  0  0  0  0  0
   16.5306   73.1302   -7.9710 H   0  0  0  0  0  0  0  0  0  0  0  0
   15.8467   69.7867   -6.6949 O   0  0  0  0  0  0  0  0  0  0  0  0
   16.7293   68.3191   -2.4158 O   0  0  0  0  0  0  0  0  0  0  0  0
   18.0117   70.0569   -5.8592 N   0  0  0  0  0  0  0  0  0  0  0  0
   16.2886   69.0575   -4.5637 N   0  0  0  0  0  0  0  0  0  0  0  0
   16.6597   69.6472   -5.7792 C   0  0  0  0  0  0  0  0  0  0  0  0
   18.8650   69.8609   -4.7801 C   0  0  0  0  0  0  0  0  0  0  0  0
   18.4968   69.2973   -3.6280 C   0  0  0  0  0  0  0  0  0  0  0  0
   17.1009   68.8419   -3.4622 C   0  0  0  0  0  0  0  0  0  0  0  0
   15.3516   68.7660   -4.4835 H   0  0  0  0  0  0  0  0  0  0  0  0
   21.1366   75.0285   -3.8490 O   0  0  0  0  0  0  0  0  0  0  0  0
   22.3999   74.4933   -2.9939 P   0  0  2  0  0  0  0  0  0  0  0  0
   23.1361   75.8577   -2.5284 O   0  0  0  0  0  0  0  0  0  0  0  0
   23.2853   73.5355   -3.7373 O   0  0  0  0  0  0  0  0  0  0  0  0
   21.7551   73.8965   -1.6410 O   0  0  0  0  0  0  0  0  0  0  0  0
   22.5102   73.3416    0.5341 O   0  0  0  0  0  0  0  0  0  0  0  0
   20.1299   70.0921   -0.3838 O   0  0  0  0  0  0  0  0  0  0  0  0
   21.9292   71.2230   -2.3883 O   0  0  0  0  0  0  0  0  0  0  0  0
   19.1696   72.1324    1.4508 O   0  0  0  0  0  0  0  0  0  0  0  0
   20.5364   71.4602   -0.4160 C   0  0  2  0  0  0  0  0  0  0  0  0
   21.9429   71.5624   -1.0065 C   0  0  2  0  0  0  0  0  0  0  0  0
   20.5217   71.9918    1.0190 C   0  0  1  0  0  0  0  0  0  0  0  0
   22.5020   72.9768   -0.8466 C   0  0  1  0  0  0  0  0  0  0  0  0
   21.2088   73.3508    1.1167 C   0  0  1  0  0  0  0  0  0  0  0  0
   20.1317   69.7328   -1.2850 H   0  0  0  0  0  0  0  0  0  0  0  0
   21.5753   70.3268   -2.4972 H   0  0  0  0  0  0  0  0  0  0  0  0
   18.7209   71.2744    1.3934 H   0  0  0  0  0  0  0  0  0  0  0  0
   20.4045   74.3128    3.0989 O   0  0  0  0  0  0  0  0  0  0  0  0
   22.5276   73.4818    3.1329 O   0  0  0  0  0  0  0  0  0  0  0  0
   21.4818   73.7059    2.5421 C   0  0  0  0  0  0  0  0  0  0  0  0
  1  4  1  0
  1 24  1  0
  1  2  1  1
  1  3  2  0
 25 28  1  0
 25 24  1  0
 25 26  1  1
 25 27  2  0
  6 11  1  0
  6 12  1  0
 29 36  1  0
 29 37  1  0
  9  7  1  6
  7 13  1  0
 10  8  1  6
  8 14  1  0
  4  5  1  0
 36 28  1  6
 33 30  1  1
 30 38  1  0
 34 31  1  6
 31 39  1  0
 35 32  1  6
 32 40  1  0
 41 43  1  0
 15 19  2  0
 42 43  2  0
 16 22  2  0
 12 17  1  1
 17 19  1  0
 17 20  1  0
 18 19  1  0
 18 22  1  0
 18 23  1  0
  9 10  1  0
  9 11  1  0
 10 12  1  0
 11  5  1  1
 33 34  1  0
 33 35  1  0
 34 36  1  0
 35 37  1  0
 37 43  1  1
 20 21  2  0
 21 22  1  0
M  CHG  3   2  -1  26  -1  41  -1
M  END
>  <COMPND>  (111) 
    udp_gluA.pdb 

>  <AUTHOR>  (111) 
    GENERATED BY OPEN BABEL 3.1.1

>  <MASTER>  (111) 
        0    0    0    0    0    0    0    0   56    0   56    0

>  <minimizedAffinity>  (111) 
-7.15687

>  <CNNscore>  (111) 
0.3943696320

>  <CNNaffinity>  (111) 
4.1284618378

>  <CNN_VS>  (111) 
1.6281399727

>  <CNNaffinity_variance>  (111) 
0.3664504588

$$$$
112
     RDKit          3D

 43 45  0  0  0  0  0  0  0  0999 V2000
   20.2496   70.5962   -1.4797 P   0  0  2  0  0  0  0  0  0  0  0  0
   19.4660   69.1899   -1.3151 O   0  0  0  0  0  0  0  0  0  0  0  0
   21.7446   70.4846   -1.5443 O   0  0  0  0  0  0  0  0  0  0  0  0
   19.6644   71.5098   -0.2794 O   0  0  0  0  0  0  0  0  0  0  0  0
   20.2976   72.7448    0.0008 C   0  0  0  0  0  0  0  0  0  0  0  0
   22.6025   73.1536    0.5466 O   0  0  0  0  0  0  0  0  0  0  0  0
   21.8653   72.4540    3.3677 O   0  0  0  0  0  0  0  0  0  0  0  0
   21.9327   75.1794    3.4279 O   0  0  0  0  0  0  0  0  0  0  0  0
   21.1028   73.1483    2.3801 C   0  0  1  0  0  0  0  0  0  0  0  0
   21.6374   74.5529    2.1971 C   0  0  2  0  0  0  0  0  0  0  0  0
   21.3995   72.5157    1.0273 C   0  0  1  0  0  0  0  0  0  0  0  0
   22.8763   74.3112    1.3518 C   0  0  2  0  0  0  0  0  0  0  0  0
   21.6923   72.8405    4.2408 H   0  0  0  0  0  0  0  0  0  0  0  0
   21.1119   75.3115    3.9286 H   0  0  0  0  0  0  0  0  0  0  0  0
   24.3187   76.6055    2.1470 O   0  0  0  0  0  0  0  0  0  0  0  0
   23.9682   78.5008   -2.0398 O   0  0  0  0  0  0  0  0  0  0  0  0
   23.1763   75.4193    0.4898 N   0  0  0  0  0  0  0  0  0  0  0  0
   24.1419   77.5477    0.0612 N   0  0  0  0  0  0  0  0  0  0  0  0
   23.9072   76.5236    0.9882 C   0  0  0  0  0  0  0  0  0  0  0  0
   22.7498   75.4045   -0.8327 C   0  0  0  0  0  0  0  0  0  0  0  0
   22.9813   76.3881   -1.7043 C   0  0  0  0  0  0  0  0  0  0  0  0
   23.7375   77.5785   -1.2636 C   0  0  0  0  0  0  0  0  0  0  0  0
   24.6471   78.3280    0.3856 H   0  0  0  0  0  0  0  0  0  0  0  0
   19.5651   71.2413   -2.7943 O   0  0  0  0  0  0  0  0  0  0  0  0
   20.1250   72.3177   -3.8627 P   0  0  2  0  0  0  0  0  0  0  0  0
   21.5508   71.6920   -4.3054 O   0  0  0  0  0  0  0  0  0  0  0  0
   20.2020   73.7225   -3.3389 O   0  0  0  0  0  0  0  0  0  0  0  0
   19.1812   72.1371   -5.1585 O   0  0  0  0  0  0  0  0  0  0  0  0
   19.6430   71.7486   -7.4487 O   0  0  0  0  0  0  0  0  0  0  0  0
   16.3865   74.2816   -7.6657 O   0  0  0  0  0  0  0  0  0  0  0  0
   18.5219   74.7771   -5.7346 O   0  0  0  0  0  0  0  0  0  0  0  0
   16.0611   71.4392   -8.1807 O   0  0  0  0  0  0  0  0  0  0  0  0
   17.2081   73.2610   -7.0989 C   0  0  2  0  0  0  0  0  0  0  0  0
   18.5940   73.8300   -6.7941 C   0  0  2  0  0  0  0  0  0  0  0  0
   17.3125   72.1202   -8.1136 C   0  0  1  0  0  0  0  0  0  0  0  0
   19.5681   72.7179   -6.4026 C   0  0  1  0  0  0  0  0  0  0  0  0
   18.3924   71.1180   -7.7159 C   0  0  1  0  0  0  0  0  0  0  0  0
   16.3058   75.0174   -7.0385 H   0  0  0  0  0  0  0  0  0  0  0  0
   17.9053   75.4855   -5.9761 H   0  0  0  0  0  0  0  0  0  0  0  0
   15.3650   72.0659   -8.4327 H   0  0  0  0  0  0  0  0  0  0  0  0
   20.0509   69.9961   -8.9375 O   0  0  0  0  0  0  0  0  0  0  0  0
   17.8909   69.7082   -9.6086 O   0  0  0  0  0  0  0  0  0  0  0  0
   18.7136   70.2048   -8.8540 C   0  0  0  0  0  0  0  0  0  0  0  0
  1  4  1  0
  1 24  1  0
  1  2  1  1
  1  3  2  0
 25 28  1  0
 25 24  1  0
 25 26  1  6
 25 27  2  0
  6 11  1  0
  6 12  1  0
 29 36  1  0
 29 37  1  0
  9  7  1  1
  7 13  1  0
 10  8  1  1
  8 14  1  0
  4  5  1  0
 36 28  1  1
 33 30  1  6
 30 38  1  0
 34 31  1  1
 31 39  1  0
 35 32  1  1
 32 40  1  0
 41 43  1  0
 15 19  2  0
 42 43  2  0
 16 22  2  0
 12 17  1  6
 17 19  1  0
 17 20  1  0
 18 19  1  0
 18 22  1  0
 18 23  1  0
  9 10  1  0
  9 11  1  0
 10 12  1  0
 11  5  1  6
 33 34  1  0
 33 35  1  0
 34 36  1  0
 35 37  1  0
 37 43  1  6
 20 21  2  0
 21 22  1  0
M  CHG  3   2  -1  26  -1  41  -1
M  END
>  <COMPND>  (112) 
    udp_gluA.pdb 

>  <AUTHOR>  (112) 
    GENERATED BY OPEN BABEL 3.1.1

>  <MASTER>  (112) 
        0    0    0    0    0    0    0    0   56    0   56    0

>  <minimizedAffinity>  (112) 
-6.93761

>  <CNNscore>  (112) 
0.3749831021

>  <CNNaffinity>  (112) 
4.0534729958

>  <CNN_VS>  (112) 
1.5199838877

>  <CNNaffinity_variance>  (112) 
0.0243380852

$$$$
113
     RDKit          3D

 43 45  0  0  0  0  0  0  0  0999 V2000
   20.1704   75.1078   -3.1471 P   0  0  2  0  0  0  0  0  0  0  0  0
   21.6022   74.6726   -2.5311 O   0  0  0  0  0  0  0  0  0  0  0  0
   20.1528   76.4464   -3.8250 O   0  0  0  0  0  0  0  0  0  0  0  0
   19.1452   74.9345   -1.9073 O   0  0  0  0  0  0  0  0  0  0  0  0
   19.6097   75.2210   -0.6009 C   0  0  0  0  0  0  0  0  0  0  0  0
   19.2567   72.8921   -0.1217 O   0  0  0  0  0  0  0  0  0  0  0  0
   18.6677   73.7512    2.6901 O   0  0  0  0  0  0  0  0  0  0  0  0
   21.2317   72.8402    2.8701 O   0  0  0  0  0  0  0  0  0  0  0  0
   19.6157   74.2810    1.7632 C   0  0  1  0  0  0  0  0  0  0  0  0
   20.7944   73.3409    1.6240 C   0  0  2  0  0  0  0  0  0  0  0  0
   18.9965   74.2234    0.3734 C   0  0  1  0  0  0  0  0  0  0  0  0
   20.2279   72.2560    0.7241 C   0  0  2  0  0  0  0  0  0  0  0  0
   19.0410   73.7775    3.5855 H   0  0  0  0  0  0  0  0  0  0  0  0
   21.5835   73.5690    3.4058 H   0  0  0  0  0  0  0  0  0  0  0  0
   19.9076   69.7953   -0.6246 O   0  0  0  0  0  0  0  0  0  0  0  0
   24.1553   70.0073   -2.4011 O   0  0  0  0  0  0  0  0  0  0  0  0
   21.2340   71.6450   -0.0977 N   0  0  0  0  0  0  0  0  0  0  0  0
   22.0238   69.9027   -1.5073 N   0  0  0  0  0  0  0  0  0  0  0  0
   20.9722   70.4070   -0.7309 C   0  0  0  0  0  0  0  0  0  0  0  0
   22.4623   72.2713   -0.2711 C   0  0  0  0  0  0  0  0  0  0  0  0
   23.4549   71.7784   -1.0144 C   0  0  0  0  0  0  0  0  0  0  0  0
   23.2631   70.4885   -1.7093 C   0  0  0  0  0  0  0  0  0  0  0  0
   21.8658   69.0409   -1.9563 H   0  0  0  0  0  0  0  0  0  0  0  0
   19.7943   73.8622   -4.1063 O   0  0  0  0  0  0  0  0  0  0  0  0
   20.7177   72.9434   -5.0638 P   0  0  2  0  0  0  0  0  0  0  0  0
   21.1611   71.7264   -4.0929 O   0  0  0  0  0  0  0  0  0  0  0  0
   21.8634   73.6751   -5.7009 O   0  0  0  0  0  0  0  0  0  0  0  0
   19.6860   72.2755   -6.1088 O   0  0  0  0  0  0  0  0  0  0  0  0
   18.8907   70.0704   -5.7708 O   0  0  0  0  0  0  0  0  0  0  0  0
   18.0572   70.6603   -9.7739 O   0  0  0  0  0  0  0  0  0  0  0  0
   20.5930   71.5651   -8.6403 O   0  0  0  0  0  0  0  0  0  0  0  0
   15.9189   70.7654   -7.8073 O   0  0  0  0  0  0  0  0  0  0  0  0
   18.2352   71.0419   -8.4099 C   0  0  2  0  0  0  0  0  0  0  0  0
   19.6640   70.7205   -7.9709 C   0  0  2  0  0  0  0  0  0  0  0  0
   17.2294   70.2576   -7.5642 C   0  0  1  0  0  0  0  0  0  0  0  0
   19.8259   70.9002   -6.4608 C   0  0  1  0  0  0  0  0  0  0  0  0
   17.5339   70.3864   -6.0745 C   0  0  1  0  0  0  0  0  0  0  0  0
   18.6860   71.1461  -10.3305 H   0  0  0  0  0  0  0  0  0  0  0  0
   20.4957   71.4564   -9.5990 H   0  0  0  0  0  0  0  0  0  0  0  0
   15.7127   70.6894   -8.7520 H   0  0  0  0  0  0  0  0  0  0  0  0
   17.6120   68.5815   -4.5786 O   0  0  0  0  0  0  0  0  0  0  0  0
   15.5518   69.2663   -5.2756 O   0  0  0  0  0  0  0  0  0  0  0  0
   16.7690   69.3729   -5.2872 C   0  0  0  0  0  0  0  0  0  0  0  0
  1  4  1  0
  1 24  1  0
  1  2  1  1
  1  3  2  0
 25 28  1  0
 25 24  1  0
 25 26  1  1
 25 27  2  0
  6 11  1  0
  6 12  1  0
 29 36  1  0
 29 37  1  0
  9  7  1  1
  7 13  1  0
 10  8  1  1
  8 14  1  0
  4  5  1  0
 36 28  1  6
 33 30  1  6
 30 38  1  0
 34 31  1  6
 31 39  1  0
 35 32  1  1
 32 40  1  0
 41 43  1  0
 15 19  2  0
 42 43  2  0
 16 22  2  0
 12 17  1  6
 17 19  1  0
 17 20  1  0
 18 19  1  0
 18 22  1  0
 18 23  1  0
  9 10  1  0
  9 11  1  0
 10 12  1  0
 11  5  1  6
 33 34  1  0
 33 35  1  0
 34 36  1  0
 35 37  1  0
 37 43  1  1
 20 21  2  0
 21 22  1  0
M  CHG  3   2  -1  26  -1  41  -1
M  END
>  <COMPND>  (113) 
    udp_gluA.pdb 

>  <AUTHOR>  (113) 
    GENERATED BY OPEN BABEL 3.1.1

>  <MASTER>  (113) 
        0    0    0    0    0    0    0    0   56    0   56    0

>  <minimizedAffinity>  (113) 
-7.93141

>  <CNNscore>  (113) 
0.3730765283

>  <CNNaffinity>  (113) 
4.0805611610

>  <CNN_VS>  (113) 
1.5223616362

>  <CNNaffinity_variance>  (113) 
0.6116471887

$$$$
114
     RDKit          3D

 43 45  0  0  0  0  0  0  0  0999 V2000
   20.9693   70.2589   -1.4048 P   0  0  2  0  0  0  0  0  0  0  0  0
   22.5051   69.7717   -1.2542 O   0  0  0  0  0  0  0  0  0  0  0  0
   19.9538   69.3610   -0.7611 O   0  0  0  0  0  0  0  0  0  0  0  0
   20.7907   70.4947   -2.9955 O   0  0  0  0  0  0  0  0  0  0  0  0
   20.7281   71.8239   -3.4792 C   0  0  0  0  0  0  0  0  0  0  0  0
   20.0784   70.6971   -5.5005 O   0  0  0  0  0  0  0  0  0  0  0  0
   20.9107   73.1930   -6.9390 O   0  0  0  0  0  0  0  0  0  0  0  0
   18.1962   73.4358   -6.8462 O   0  0  0  0  0  0  0  0  0  0  0  0
   20.2854   73.0511   -5.6633 C   0  0  1  0  0  0  0  0  0  0  0  0
   18.8270   72.6813   -5.8326 C   0  0  2  0  0  0  0  0  0  0  0  0
   20.8545   71.8059   -4.9971 C   0  0  1  0  0  0  0  0  0  0  0  0
   18.9138   71.2031   -6.1721 C   0  0  2  0  0  0  0  0  0  0  0  0
   20.5630   73.9822   -7.3839 H   0  0  0  0  0  0  0  0  0  0  0  0
   18.1654   74.3693   -6.5827 H   0  0  0  0  0  0  0  0  0  0  0  0
   16.6462   70.6709   -7.7694 O   0  0  0  0  0  0  0  0  0  0  0  0
   14.5552   68.3811   -4.3593 O   0  0  0  0  0  0  0  0  0  0  0  0
   17.7626   70.4701   -5.7268 N   0  0  0  0  0  0  0  0  0  0  0  0
   15.6065   69.5318   -6.0691 N   0  0  0  0  0  0  0  0  0  0  0  0
   16.6763   70.2582   -6.6084 C   0  0  0  0  0  0  0  0  0  0  0  0
   17.7179   69.9687   -4.4317 C   0  0  0  0  0  0  0  0  0  0  0  0
   16.6913   69.2780   -3.9319 C   0  0  0  0  0  0  0  0  0  0  0  0
   15.5159   69.0135   -4.7874 C   0  0  0  0  0  0  0  0  0  0  0  0
   14.8377   69.3734   -6.6634 H   0  0  0  0  0  0  0  0  0  0  0  0
   21.0066   71.7639   -0.8163 O   0  0  0  0  0  0  0  0  0  0  0  0
   21.9977   72.4608    0.2541 P   0  0  2  0  0  0  0  0  0  0  0  0
   23.1858   73.0525   -0.6725 O   0  0  0  0  0  0  0  0  0  0  0  0
   22.4647   71.5448    1.3482 O   0  0  0  0  0  0  0  0  0  0  0  0
   21.1953   73.7625    0.7678 O   0  0  0  0  0  0  0  0  0  0  0  0
   21.4702   76.0955    0.4667 O   0  0  0  0  0  0  0  0  0  0  0  0
   20.3160   75.8895    4.4281 O   0  0  0  0  0  0  0  0  0  0  0  0
   22.2297   73.9683    3.3415 O   0  0  0  0  0  0  0  0  0  0  0  0
   18.4252   76.7651    2.4010 O   0  0  0  0  0  0  0  0  0  0  0  0
   20.3566   75.4843    3.0599 C   0  0  2  0  0  0  0  0  0  0  0  0
   21.7952   75.1447    2.6693 C   0  0  2  0  0  0  0  0  0  0  0  0
   19.8331   76.6427    2.2079 C   0  0  1  0  0  0  0  0  0  0  0  0
   21.9160   74.9294    1.1600 C   0  0  1  0  0  0  0  0  0  0  0  0
   20.1034   76.4096    0.7243 C   0  0  1  0  0  0  0  0  0  0  0  0
   20.6443   75.1690    4.9888 H   0  0  0  0  0  0  0  0  0  0  0  0
   22.1555   74.0978    4.2997 H   0  0  0  0  0  0  0  0  0  0  0  0
   18.2395   76.9136    3.3414 H   0  0  0  0  0  0  0  0  0  0  0  0
   20.9260   77.8743   -0.9126 O   0  0  0  0  0  0  0  0  0  0  0  0
   18.9305   78.4083    0.0526 O   0  0  0  0  0  0  0  0  0  0  0  0
   19.8950   77.6662   -0.0567 C   0  0  0  0  0  0  0  0  0  0  0  0
  1  4  1  0
  1 24  1  0
  1  2  1  6
  1  3  2  0
 25 28  1  0
 25 24  1  0
 25 26  1  6
 25 27  2  0
  6 11  1  0
  6 12  1  0
 29 36  1  0
 29 37  1  0
  9  7  1  6
  7 13  1  0
 10  8  1  6
  8 14  1  0
  4  5  1  0
 36 28  1  6
 33 30  1  1
 30 38  1  0
 34 31  1  1
 31 39  1  0
 35 32  1  6
 32 40  1  0
 41 43  1  0
 15 19  2  0
 42 43  2  0
 16 22  2  0
 12 17  1  1
 17 19  1  0
 17 20  1  0
 18 19  1  0
 18 22  1  0
 18 23  1  0
  9 10  1  0
  9 11  1  0
 10 12  1  0
 11  5  1  1
 33 34  1  0
 33 35  1  0
 34 36  1  0
 35 37  1  0
 37 43  1  6
 20 21  2  0
 21 22  1  0
M  CHG  3   2  -1  26  -1  41  -1
M  END
>  <COMPND>  (114) 
    udp_gluA.pdb 

>  <AUTHOR>  (114) 
    GENERATED BY OPEN BABEL 3.1.1

>  <MASTER>  (114) 
        0    0    0    0    0    0    0    0   56    0   56    0

>  <minimizedAffinity>  (114) 
-7.05806

>  <CNNscore>  (114) 
0.3572546840

>  <CNNaffinity>  (114) 
4.3171691895

>  <CNN_VS>  (114) 
1.5423289537

>  <CNNaffinity_variance>  (114) 
0.2019470483

$$$$
115
     RDKit          3D

 43 45  0  0  0  0  0  0  0  0999 V2000
   19.8871   73.3772   -3.5949 P   0  0  2  0  0  0  0  0  0  0  0  0
   20.3860   74.8502   -3.1473 O   0  0  0  0  0  0  0  0  0  0  0  0
   18.4574   73.3019   -4.0445 O   0  0  0  0  0  0  0  0  0  0  0  0
   20.2790   72.4359   -2.3386 O   0  0  0  0  0  0  0  0  0  0  0  0
   20.8984   71.1889   -2.5954 C   0  0  0  0  0  0  0  0  0  0  0  0
   22.7060   72.5807   -1.8382 O   0  0  0  0  0  0  0  0  0  0  0  0
   24.4838   70.2149   -2.3221 O   0  0  0  0  0  0  0  0  0  0  0  0
   24.1245   70.1474    0.3802 O   0  0  0  0  0  0  0  0  0  0  0  0
   23.1401   70.2521   -1.8407 C   0  0  1  0  0  0  0  0  0  0  0  0
   23.1104   70.7367   -0.4066 C   0  0  2  0  0  0  0  0  0  0  0  0
   22.4105   71.3716   -2.5704 C   0  0  1  0  0  0  0  0  0  0  0  0
   23.2978   72.2347   -0.5759 C   0  0  2  0  0  0  0  0  0  0  0  0
   24.9700   69.5070   -1.8702 H   0  0  0  0  0  0  0  0  0  0  0  0
   23.9601   69.1941    0.4584 H   0  0  0  0  0  0  0  0  0  0  0  0
   23.6457   75.0077   -0.1686 O   0  0  0  0  0  0  0  0  0  0  0  0
   20.7818   75.0217    3.4427 O   0  0  0  0  0  0  0  0  0  0  0  0
   22.6551   72.9883    0.4632 N   0  0  0  0  0  0  0  0  0  0  0  0
   22.2198   75.0118    1.6303 N   0  0  0  0  0  0  0  0  0  0  0  0
   22.8980   74.3773    0.5813 C   0  0  0  0  0  0  0  0  0  0  0  0
   21.7947   72.3527    1.3501 C   0  0  0  0  0  0  0  0  0  0  0  0
   21.1554   72.9710    2.3450 C   0  0  0  0  0  0  0  0  0  0  0  0
   21.3549   74.4223    2.5380 C   0  0  0  0  0  0  0  0  0  0  0  0
   22.3746   75.9786    1.7337 H   0  0  0  0  0  0  0  0  0  0  0  0
   20.9694   72.9532   -4.7182 O   0  0  0  0  0  0  0  0  0  0  0  0
   21.0935   73.3575   -6.2786 P   0  0  2  0  0  0  0  0  0  0  0  0
   22.4711   72.6421   -6.7375 O   0  0  0  0  0  0  0  0  0  0  0  0
   21.0482   74.8356   -6.5373 O   0  0  0  0  0  0  0  0  0  0  0  0
   19.9318   72.5133   -7.0137 O   0  0  0  0  0  0  0  0  0  0  0  0
   19.1596   70.4732   -6.0913 O   0  0  0  0  0  0  0  0  0  0  0  0
   17.8415   70.1827   -9.9960 O   0  0  0  0  0  0  0  0  0  0  0  0
   20.5088   71.2183   -9.4066 O   0  0  0  0  0  0  0  0  0  0  0  0
   15.9657   70.8102   -7.8656 O   0  0  0  0  0  0  0  0  0  0  0  0
   18.1922   70.8532   -8.7854 C   0  0  2  0  0  0  0  0  0  0  0  0
   19.6607   70.5824   -8.4574 C   0  0  2  0  0  0  0  0  0  0  0  0
   17.2904   70.3186   -7.6705 C   0  0  1  0  0  0  0  0  0  0  0  0
   20.0112   71.0897   -7.0579 C   0  0  1  0  0  0  0  0  0  0  0  0
   17.7793   70.7662   -6.2960 C   0  0  1  0  0  0  0  0  0  0  0  0
   18.4018   70.5062  -10.7190 H   0  0  0  0  0  0  0  0  0  0  0  0
   20.2918   70.9012  -10.2970 H   0  0  0  0  0  0  0  0  0  0  0  0
   15.6428   70.5324   -8.7370 H   0  0  0  0  0  0  0  0  0  0  0  0
   17.8374   70.0229   -4.0721 O   0  0  0  0  0  0  0  0  0  0  0  0
   16.0437   69.3950   -5.3321 O   0  0  0  0  0  0  0  0  0  0  0  0
   17.1067   69.9858   -5.2138 C   0  0  0  0  0  0  0  0  0  0  0  0
  1  4  1  0
  1 24  1  0
  1  2  1  1
  1  3  2  0
 25 28  1  0
 25 24  1  0
 25 26  1  6
 25 27  2  0
  6 11  1  0
  6 12  1  0
 29 36  1  0
 29 37  1  0
  9  7  1  6
  7 13  1  0
 10  8  1  1
  8 14  1  0
  4  5  1  0
 36 28  1  6
 33 30  1  6
 30 38  1  0
 34 31  1  6
 31 39  1  0
 35 32  1  6
 32 40  1  0
 41 43  1  0
 15 19  2  0
 42 43  2  0
 16 22  2  0
 12 17  1  1
 17 19  1  0
 17 20  1  0
 18 19  1  0
 18 22  1  0
 18 23  1  0
  9 10  1  0
  9 11  1  0
 10 12  1  0
 11  5  1  1
 33 34  1  0
 33 35  1  0
 34 36  1  0
 35 37  1  0
 37 43  1  1
 20 21  2  0
 21 22  1  0
M  CHG  3   2  -1  26  -1  41  -1
M  END
>  <COMPND>  (115) 
    udp_gluA.pdb 

>  <AUTHOR>  (115) 
    GENERATED BY OPEN BABEL 3.1.1

>  <MASTER>  (115) 
        0    0    0    0    0    0    0    0   56    0   56    0

>  <minimizedAffinity>  (115) 
-8.18834

>  <CNNscore>  (115) 
0.3348855078

>  <CNNaffinity>  (115) 
4.0650186539

>  <CNN_VS>  (115) 
1.3613158464

>  <CNNaffinity_variance>  (115) 
0.3884226680

$$$$
116
     RDKit          3D

 43 45  0  0  0  0  0  0  0  0999 V2000
   19.5337   73.6966   -3.4699 P   0  0  2  0  0  0  0  0  0  0  0  0
   20.0210   74.5531   -2.1863 O   0  0  0  0  0  0  0  0  0  0  0  0
   18.0463   73.5571   -3.6109 O   0  0  0  0  0  0  0  0  0  0  0  0
   20.3610   72.3113   -3.3495 O   0  0  0  0  0  0  0  0  0  0  0  0
   21.6254   72.3321   -2.7127 C   0  0  0  0  0  0  0  0  0  0  0  0
   22.5963   71.6742   -0.6146 O   0  0  0  0  0  0  0  0  0  0  0  0
   20.2794   69.7899   -0.3456 O   0  0  0  0  0  0  0  0  0  0  0  0
   19.5489   71.8661    1.2643 O   0  0  0  0  0  0  0  0  0  0  0  0
   20.3175   71.1001   -0.9116 C   0  0  1  0  0  0  0  0  0  0  0  0
   20.4149   72.1413    0.1832 C   0  0  2  0  0  0  0  0  0  0  0  0
   21.6516   71.2641   -1.6269 C   0  0  1  0  0  0  0  0  0  0  0  0
   21.8810   72.0545    0.5715 C   0  0  2  0  0  0  0  0  0  0  0  0
   19.4360   69.6615    0.1169 H   0  0  0  0  0  0  0  0  0  0  0  0
   18.6278   71.9343    0.9662 H   0  0  0  0  0  0  0  0  0  0  0  0
   21.8739   72.8584    3.2790 O   0  0  0  0  0  0  0  0  0  0  0  0
   23.8875   76.8821    2.2793 O   0  0  0  0  0  0  0  0  0  0  0  0
   22.3971   73.3071    1.0466 N   0  0  0  0  0  0  0  0  0  0  0  0
   22.8759   74.8621    2.7784 N   0  0  0  0  0  0  0  0  0  0  0  0
   22.3453   73.6138    2.4270 C   0  0  0  0  0  0  0  0  0  0  0  0
   22.9480   74.2149    0.1504 C   0  0  0  0  0  0  0  0  0  0  0  0
   23.4499   75.4008    0.5004 C   0  0  0  0  0  0  0  0  0  0  0  0
   23.4336   75.7988    1.9234 C   0  0  0  0  0  0  0  0  0  0  0  0
   22.8491   75.0988    3.7337 H   0  0  0  0  0  0  0  0  0  0  0  0
   20.2596   74.4472   -4.7038 O   0  0  0  0  0  0  0  0  0  0  0  0
   20.4363   74.0170   -6.2521 P   0  0  2  0  0  0  0  0  0  0  0  0
   21.8666   73.2591   -6.2645 O   0  0  0  0  0  0  0  0  0  0  0  0
   20.3319   75.1567   -7.2238 O   0  0  0  0  0  0  0  0  0  0  0  0
   19.3520   72.8439   -6.4772 O   0  0  0  0  0  0  0  0  0  0  0  0
   19.3238   70.5853   -5.7651 O   0  0  0  0  0  0  0  0  0  0  0  0
   17.4409   70.3336   -9.4338 O   0  0  0  0  0  0  0  0  0  0  0  0
   19.8037   72.0178   -9.0944 O   0  0  0  0  0  0  0  0  0  0  0  0
   15.8861   70.1814   -6.9822 O   0  0  0  0  0  0  0  0  0  0  0  0
   17.8173   70.9485   -8.2017 C   0  0  2  0  0  0  0  0  0  0  0  0
   19.3396   71.0737   -8.1362 C   0  0  2  0  0  0  0  0  0  0  0  0
   17.3059   70.0689   -7.0586 C   0  0  1  0  0  0  0  0  0  0  0  0
   19.7930   71.5137   -6.7435 C   0  0  1  0  0  0  0  0  0  0  0  0
   17.9016   70.4937   -5.7194 C   0  0  1  0  0  0  0  0  0  0  0  0
   17.7554   70.8750  -10.1749 H   0  0  0  0  0  0  0  0  0  0  0  0
   19.5193   71.7450   -9.9804 H   0  0  0  0  0  0  0  0  0  0  0  0
   15.4946   69.9141   -7.8285 H   0  0  0  0  0  0  0  0  0  0  0  0
   18.3108   69.7642   -3.5281 O   0  0  0  0  0  0  0  0  0  0  0  0
   16.9856   68.4451   -4.8332 O   0  0  0  0  0  0  0  0  0  0  0  0
   17.6660   69.4482   -4.6785 C   0  0  0  0  0  0  0  0  0  0  0  0
  1  4  1  0
  1 24  1  0
  1  2  1  1
  1  3  2  0
 25 28  1  0
 25 24  1  0
 25 26  1  1
 25 27  2  0
  6 11  1  0
  6 12  1  0
 29 36  1  0
 29 37  1  0
  9  7  1  1
  7 13  1  0
 10  8  1  1
  8 14  1  0
  4  5  1  0
 36 28  1  1
 33 30  1  6
 30 38  1  0
 34 31  1  6
 31 39  1  0
 35 32  1  1
 32 40  1  0
 41 43  1  0
 15 19  2  0
 42 43  2  0
 16 22  2  0
 12 17  1  6
 17 19  1  0
 17 20  1  0
 18 19  1  0
 18 22  1  0
 18 23  1  0
  9 10  1  0
  9 11  1  0
 10 12  1  0
 11  5  1  6
 33 34  1  0
 33 35  1  0
 34 36  1  0
 35 37  1  0
 37 43  1  1
 20 21  2  0
 21 22  1  0
M  CHG  3   2  -1  26  -1  41  -1
M  END
>  <COMPND>  (116) 
    udp_gluA.pdb 

>  <AUTHOR>  (116) 
    GENERATED BY OPEN BABEL 3.1.1

>  <MASTER>  (116) 
        0    0    0    0    0    0    0    0   56    0   56    0

>  <minimizedAffinity>  (116) 
-7.73878

>  <CNNscore>  (116) 
0.3298874795

>  <CNNaffinity>  (116) 
4.0182776451

>  <CNN_VS>  (116) 
1.3255795240

>  <CNNaffinity_variance>  (116) 
0.1841077954

$$$$
117
     RDKit          3D

 43 45  0  0  0  0  0  0  0  0999 V2000
   18.5209   72.3173   -2.1051 P   0  0  2  0  0  0  0  0  0  0  0  0
   17.4260   73.3569   -1.5226 O   0  0  0  0  0  0  0  0  0  0  0  0
   17.9617   71.0082   -2.5799 O   0  0  0  0  0  0  0  0  0  0  0  0
   19.6302   72.2229   -0.9310 O   0  0  0  0  0  0  0  0  0  0  0  0
   20.3544   73.3906   -0.5896 C   0  0  0  0  0  0  0  0  0  0  0  0
   22.3886   74.1746    0.4228 O   0  0  0  0  0  0  0  0  0  0  0  0
   22.8999   71.3157    1.1691 O   0  0  0  0  0  0  0  0  0  0  0  0
   21.9692   72.3826    3.4997 O   0  0  0  0  0  0  0  0  0  0  0  0
   21.6637   72.0279    1.1137 C   0  0  1  0  0  0  0  0  0  0  0  0
   21.5524   72.9768    2.2882 C   0  0  2  0  0  0  0  0  0  0  0  0
   21.7271   72.9878   -0.0665 C   0  0  1  0  0  0  0  0  0  0  0  0
   22.4550   74.1201    1.8567 C   0  0  2  0  0  0  0  0  0  0  0  0
   22.8832   70.6960    1.9157 H   0  0  0  0  0  0  0  0  0  0  0  0
   21.3627   71.6612    3.7314 H   0  0  0  0  0  0  0  0  0  0  0  0
   24.1665   76.3280    2.2717 O   0  0  0  0  0  0  0  0  0  0  0  0
   20.7267   78.9178    3.9163 O   0  0  0  0  0  0  0  0  0  0  0  0
   22.0329   75.3835    2.3920 N   0  0  0  0  0  0  0  0  0  0  0  0
   22.4518   77.6155    3.0914 N   0  0  0  0  0  0  0  0  0  0  0  0
   22.9726   76.4278    2.5608 C   0  0  0  0  0  0  0  0  0  0  0  0
   20.7024   75.5790    2.7416 C   0  0  0  0  0  0  0  0  0  0  0  0
   20.2208   76.7167    3.2461 C   0  0  0  0  0  0  0  0  0  0  0  0
   21.1369   77.8572    3.4548 C   0  0  0  0  0  0  0  0  0  0  0  0
   23.0874   78.3563    3.2200 H   0  0  0  0  0  0  0  0  0  0  0  0
   19.2717   73.1822   -3.2457 O   0  0  0  0  0  0  0  0  0  0  0  0
   20.3657   72.7523   -4.3557 P   0  0  2  0  0  0  0  0  0  0  0  0
   21.0734   71.4552   -3.6946 O   0  0  0  0  0  0  0  0  0  0  0  0
   21.3177   73.8482   -4.7387 O   0  0  0  0  0  0  0  0  0  0  0  0
   19.4965   72.1623   -5.5800 O   0  0  0  0  0  0  0  0  0  0  0  0
   18.8502   69.8866   -5.4684 O   0  0  0  0  0  0  0  0  0  0  0  0
   18.0858   70.7845   -9.4279 O   0  0  0  0  0  0  0  0  0  0  0  0
   20.5198   71.7512   -8.1334 O   0  0  0  0  0  0  0  0  0  0  0  0
   15.8930   70.5628   -7.5324 O   0  0  0  0  0  0  0  0  0  0  0  0
   18.1995   71.0501   -8.0299 C   0  0  2  0  0  0  0  0  0  0  0  0
   19.6350   70.7874   -7.5741 C   0  0  2  0  0  0  0  0  0  0  0  0
   17.2290   70.1249   -7.2923 C   0  0  1  0  0  0  0  0  0  0  0  0
   19.7428   70.8380   -6.0494 C   0  0  1  0  0  0  0  0  0  0  0  0
   17.4832   70.1364   -5.7877 C   0  0  1  0  0  0  0  0  0  0  0  0
   18.6937   71.3610   -9.9173 H   0  0  0  0  0  0  0  0  0  0  0  0
   20.4564   71.7248   -9.1007 H   0  0  0  0  0  0  0  0  0  0  0  0
   15.7184   70.5602   -8.4865 H   0  0  0  0  0  0  0  0  0  0  0  0
   15.4272   69.1613   -5.2186 O   0  0  0  0  0  0  0  0  0  0  0  0
   17.3156   68.0639   -4.5638 O   0  0  0  0  0  0  0  0  0  0  0  0
   16.7707   69.0051   -5.1207 C   0  0  0  0  0  0  0  0  0  0  0  0
  1  4  1  0
  1 24  1  0
  1  2  1  1
  1  3  2  0
 25 28  1  0
 25 24  1  0
 25 26  1  1
 25 27  2  0
  6 11  1  0
  6 12  1  0
 29 36  1  0
 29 37  1  0
  9  7  1  1
  7 13  1  0
 10  8  1  1
  8 14  1  0
  4  5  1  0
 36 28  1  1
 33 30  1  6
 30 38  1  0
 34 31  1  6
 31 39  1  0
 35 32  1  1
 32 40  1  0
 41 43  1  0
 15 19  2  0
 42 43  2  0
 16 22  2  0
 12 17  1  1
 17 19  1  0
 17 20  1  0
 18 19  1  0
 18 22  1  0
 18 23  1  0
  9 10  1  0
  9 11  1  0
 10 12  1  0
 11  5  1  1
 33 34  1  0
 33 35  1  0
 34 36  1  0
 35 37  1  0
 37 43  1  1
 20 21  2  0
 21 22  1  0
M  CHG  3   2  -1  26  -1  41  -1
M  END
>  <COMPND>  (117) 
    udp_gluA.pdb 

>  <AUTHOR>  (117) 
    GENERATED BY OPEN BABEL 3.1.1

>  <MASTER>  (117) 
        0    0    0    0    0    0    0    0   56    0   56    0

>  <minimizedAffinity>  (117) 
-7.44562

>  <CNNscore>  (117) 
0.3100593388

>  <CNNaffinity>  (117) 
3.9904646873

>  <CNN_VS>  (117) 
1.2372808456

>  <CNNaffinity_variance>  (117) 
0.0329133123

$$$$
118
     RDKit          3D

 43 45  0  0  0  0  0  0  0  0999 V2000
   21.0432   70.2439   -1.4939 P   0  0  2  0  0  0  0  0  0  0  0  0
   22.5786   69.7366   -1.4281 O   0  0  0  0  0  0  0  0  0  0  0  0
   20.0536   69.3610   -0.7920 O   0  0  0  0  0  0  0  0  0  0  0  0
   20.7791   70.4790   -3.0728 O   0  0  0  0  0  0  0  0  0  0  0  0
   20.7582   71.8064   -3.5646 C   0  0  0  0  0  0  0  0  0  0  0  0
   20.0877   70.6637   -5.5702 O   0  0  0  0  0  0  0  0  0  0  0  0
   20.9144   73.1444   -7.0379 O   0  0  0  0  0  0  0  0  0  0  0  0
   18.2016   73.3958   -6.9237 O   0  0  0  0  0  0  0  0  0  0  0  0
   20.2999   73.0156   -5.7556 C   0  0  1  0  0  0  0  0  0  0  0  0
   18.8391   72.6486   -5.9090 C   0  0  2  0  0  0  0  0  0  0  0  0
   20.8713   71.7747   -5.0833 C   0  0  1  0  0  0  0  0  0  0  0  0
   18.9187   71.1672   -6.2361 C   0  0  2  0  0  0  0  0  0  0  0  0
   20.5651   73.9306   -7.4867 H   0  0  0  0  0  0  0  0  0  0  0  0
   18.1757   74.3318   -6.6682 H   0  0  0  0  0  0  0  0  0  0  0  0
   16.6069   70.6876   -7.7860 O   0  0  0  0  0  0  0  0  0  0  0  0
   14.5696   68.3709   -4.3617 O   0  0  0  0  0  0  0  0  0  0  0  0
   17.7694   70.4415   -5.7743 N   0  0  0  0  0  0  0  0  0  0  0  0
   15.5940   69.5351   -6.0787 N   0  0  0  0  0  0  0  0  0  0  0  0
   16.6597   70.2567   -6.6326 C   0  0  0  0  0  0  0  0  0  0  0  0
   17.7495   69.9205   -4.4863 C   0  0  0  0  0  0  0  0  0  0  0  0
   16.7265   69.2348   -3.9724 C   0  0  0  0  0  0  0  0  0  0  0  0
   15.5277   68.9981   -4.8032 C   0  0  0  0  0  0  0  0  0  0  0  0
   14.8092   69.3954   -6.6565 H   0  0  0  0  0  0  0  0  0  0  0  0
   21.1333   71.7495   -0.9125 O   0  0  0  0  0  0  0  0  0  0  0  0
   21.8384   72.3321    0.4205 P   0  0  2  0  0  0  0  0  0  0  0  0
   22.6421   73.6281   -0.1224 O   0  0  0  0  0  0  0  0  0  0  0  0
   22.6920   71.3363    1.1511 O   0  0  0  0  0  0  0  0  0  0  0  0
   20.6253   72.9411    1.2923 O   0  0  0  0  0  0  0  0  0  0  0  0
   18.6727   74.0993    0.6178 O   0  0  0  0  0  0  0  0  0  0  0  0
   19.4869   75.8736    4.2588 O   0  0  0  0  0  0  0  0  0  0  0  0
   21.6467   75.2880    2.3809 O   0  0  0  0  0  0  0  0  0  0  0  0
   17.3277   73.9408    4.0278 O   0  0  0  0  0  0  0  0  0  0  0  0
   19.4544   74.8122    3.3046 C   0  0  2  0  0  0  0  0  0  0  0  0
   20.2607   75.2107    2.0683 C   0  0  2  0  0  0  0  0  0  0  0  0
   17.9928   74.5595    2.9281 C   0  0  1  0  0  0  0  0  0  0  0  0
   20.0610   74.2019    0.9364 C   0  0  1  0  0  0  0  0  0  0  0  0
   17.8810   73.6436    1.7127 C   0  0  1  0  0  0  0  0  0  0  0  0
   20.4060   76.0520    4.5131 H   0  0  0  0  0  0  0  0  0  0  0  0
   21.7808   75.9261    3.0987 H   0  0  0  0  0  0  0  0  0  0  0  0
   17.3916   74.5135    4.8080 H   0  0  0  0  0  0  0  0  0  0  0  0
   16.5226   73.7593   -0.1960 O   0  0  0  0  0  0  0  0  0  0  0  0
   15.4710   73.6086    1.8216 O   0  0  0  0  0  0  0  0  0  0  0  0
   16.4944   73.6669    1.1567 C   0  0  0  0  0  0  0  0  0  0  0  0
  1  4  1  0
  1 24  1  0
  1  2  1  6
  1  3  2  0
 25 28  1  0
 25 24  1  0
 25 26  1  6
 25 27  2  0
  6 11  1  0
  6 12  1  0
 29 36  1  0
 29 37  1  0
  9  7  1  6
  7 13  1  0
 10  8  1  6
  8 14  1  0
  4  5  1  0
 36 28  1  1
 33 30  1  1
 30 38  1  0
 34 31  1  1
 31 39  1  0
 35 32  1  1
 32 40  1  0
 41 43  1  0
 15 19  2  0
 42 43  2  0
 16 22  2  0
 12 17  1  1
 17 19  1  0
 17 20  1  0
 18 19  1  0
 18 22  1  0
 18 23  1  0
  9 10  1  0
  9 11  1  0
 10 12  1  0
 11  5  1  1
 33 34  1  0
 33 35  1  0
 34 36  1  0
 35 37  1  0
 37 43  1  6
 20 21  2  0
 21 22  1  0
M  CHG  3   2  -1  26  -1  41  -1
M  END
>  <COMPND>  (118) 
    udp_gluA.pdb 

>  <AUTHOR>  (118) 
    GENERATED BY OPEN BABEL 3.1.1

>  <MASTER>  (118) 
        0    0    0    0    0    0    0    0   56    0   56    0

>  <minimizedAffinity>  (118) 
-7.25992

>  <CNNscore>  (118) 
0.2947826385

>  <CNNaffinity>  (118) 
4.0707359314

>  <CNN_VS>  (118) 
1.1999822855

>  <CNNaffinity_variance>  (118) 
0.1077477336

$$$$
119
     RDKit          3D

 43 45  0  0  0  0  0  0  0  0999 V2000
   21.0638   70.3236   -1.5283 P   0  0  2  0  0  0  0  0  0  0  0  0
   19.9428   69.3583   -0.8722 O   0  0  0  0  0  0  0  0  0  0  0  0
   21.8860   69.6931   -2.6139 O   0  0  0  0  0  0  0  0  0  0  0  0
   21.8909   70.8805   -0.2541 O   0  0  0  0  0  0  0  0  0  0  0  0
   21.6926   72.2241    0.1459 C   0  0  0  0  0  0  0  0  0  0  0  0
   21.3086   72.9792    2.3953 O   0  0  0  0  0  0  0  0  0  0  0  0
   18.3945   72.5274    1.8514 O   0  0  0  0  0  0  0  0  0  0  0  0
   18.6422   75.2281    1.5662 O   0  0  0  0  0  0  0  0  0  0  0  0
   19.4151   73.0005    0.9722 C   0  0  1  0  0  0  0  0  0  0  0  0
   19.7795   74.4299    1.3132 C   0  0  2  0  0  0  0  0  0  0  0  0
   20.7017   72.2563    1.3024 C   0  0  1  0  0  0  0  0  0  0  0  0
   20.6518   74.2481    2.5436 C   0  0  2  0  0  0  0  0  0  0  0  0
   17.5626   72.9886    1.6594 H   0  0  0  0  0  0  0  0  0  0  0  0
   18.1200   75.3140    0.7527 H   0  0  0  0  0  0  0  0  0  0  0  0
   20.2721   76.6724    3.9418 O   0  0  0  0  0  0  0  0  0  0  0  0
   24.5345   78.1216    2.9539 O   0  0  0  0  0  0  0  0  0  0  0  0
   21.6457   75.2766    2.6676 N   0  0  0  0  0  0  0  0  0  0  0  0
   22.3950   77.3923    3.4476 N   0  0  0  0  0  0  0  0  0  0  0  0
   21.3536   76.4567    3.3916 C   0  0  0  0  0  0  0  0  0  0  0  0
   22.8929   75.1105    2.0780 C   0  0  0  0  0  0  0  0  0  0  0  0
   23.8756   76.0112    2.1401 C   0  0  0  0  0  0  0  0  0  0  0  0
   23.6518   77.2723    2.8769 C   0  0  0  0  0  0  0  0  0  0  0  0
   22.2146   78.2229    3.9444 H   0  0  0  0  0  0  0  0  0  0  0  0
   20.2055   71.6112   -1.9955 O   0  0  0  0  0  0  0  0  0  0  0  0
   20.5870   72.8452   -2.9677 P   0  0  2  0  0  0  0  0  0  0  0  0
   22.0799   72.4723   -3.4703 O   0  0  0  0  0  0  0  0  0  0  0  0
   20.4710   74.1960   -2.3228 O   0  0  0  0  0  0  0  0  0  0  0  0
   19.6566   72.6430   -4.2700 O   0  0  0  0  0  0  0  0  0  0  0  0
   19.2954   70.9612   -5.8980 O   0  0  0  0  0  0  0  0  0  0  0  0
   19.4580   74.3676   -8.2300 O   0  0  0  0  0  0  0  0  0  0  0  0
   21.3399   73.9894   -6.0278 O   0  0  0  0  0  0  0  0  0  0  0  0
   16.9006   73.1045   -7.6682 O   0  0  0  0  0  0  0  0  0  0  0  0
   19.1773   73.6033   -7.0574 C   0  0  2  0  0  0  0  0  0  0  0  0
   20.4706   72.9812   -6.5303 C   0  0  2  0  0  0  0  0  0  0  0  0
   18.1756   72.5094   -7.4344 C   0  0  1  0  0  0  0  0  0  0  0  0
   20.1792   71.9744   -5.4166 C   0  0  1  0  0  0  0  0  0  0  0  0
   18.0345   71.4755   -6.3211 C   0  0  1  0  0  0  0  0  0  0  0  0
   20.0927   75.0691   -8.0147 H   0  0  0  0  0  0  0  0  0  0  0  0
   21.5288   74.6318   -6.7292 H   0  0  0  0  0  0  0  0  0  0  0  0
   16.9766   73.7648   -8.3747 H   0  0  0  0  0  0  0  0  0  0  0  0
   16.8920   69.5008   -5.7762 O   0  0  0  0  0  0  0  0  0  0  0  0
   17.1502   69.9756   -7.9913 O   0  0  0  0  0  0  0  0  0  0  0  0
   17.3242   70.2574   -6.8152 C   0  0  0  0  0  0  0  0  0  0  0  0
  1  4  1  0
  1 24  1  0
  1  2  1  1
  1  3  2  0
 25 28  1  0
 25 24  1  0
 25 26  1  6
 25 27  2  0
  6 11  1  0
  6 12  1  0
 29 36  1  0
 29 37  1  0
  9  7  1  1
  7 13  1  0
 10  8  1  1
  8 14  1  0
  4  5  1  0
 36 28  1  1
 33 30  1  6
 30 38  1  0
 34 31  1  1
 31 39  1  0
 35 32  1  1
 32 40  1  0
 41 43  1  0
 15 19  2  0
 42 43  2  0
 16 22  2  0
 12 17  1  6
 17 19  1  0
 17 20  1  0
 18 19  1  0
 18 22  1  0
 18 23  1  0
  9 10  1  0
  9 11  1  0
 10 12  1  0
 11  5  1  6
 33 34  1  0
 33 35  1  0
 34 36  1  0
 35 37  1  0
 37 43  1  6
 20 21  2  0
 21 22  1  0
M  CHG  3   2  -1  26  -1  41  -1
M  END
>  <COMPND>  (119) 
    udp_gluA.pdb 

>  <AUTHOR>  (119) 
    GENERATED BY OPEN BABEL 3.1.1

>  <MASTER>  (119) 
        0    0    0    0    0    0    0    0   56    0   56    0

>  <minimizedAffinity>  (119) 
-7.15557

>  <CNNscore>  (119) 
0.2920924127

>  <CNNaffinity>  (119) 
4.0506987572

>  <CNN_VS>  (119) 
1.1831784248

>  <CNNaffinity_variance>  (119) 
0.0249359794

$$$$
120
     RDKit          3D

 43 45  0  0  0  0  0  0  0  0999 V2000
   22.7070   75.4496   -4.2957 P   0  0  2  0  0  0  0  0  0  0  0  0
   21.7802   75.7208   -5.5944 O   0  0  0  0  0  0  0  0  0  0  0  0
   24.1771   75.6592   -4.5116 O   0  0  0  0  0  0  0  0  0  0  0  0
   22.2722   73.9686   -3.8105 O   0  0  0  0  0  0  0  0  0  0  0  0
   21.4543   73.1902   -4.6647 C   0  0  0  0  0  0  0  0  0  0  0  0
   19.2192   72.3061   -4.6786 O   0  0  0  0  0  0  0  0  0  0  0  0
   19.9833   70.8386   -2.1778 O   0  0  0  0  0  0  0  0  0  0  0  0
   20.1783   68.9024   -4.0881 O   0  0  0  0  0  0  0  0  0  0  0  0
   20.7739   71.1344   -3.3294 C   0  0  1  0  0  0  0  0  0  0  0  0
   20.3698   70.2440   -4.4853 C   0  0  2  0  0  0  0  0  0  0  0  0
   20.3717   72.5135   -3.8337 C   0  0  1  0  0  0  0  0  0  0  0  0
   19.0850   70.9033   -4.9570 C   0  0  2  0  0  0  0  0  0  0  0  0
   20.2225   69.9619   -1.8375 H   0  0  0  0  0  0  0  0  0  0  0  0
   21.0248   68.5275   -3.7968 H   0  0  0  0  0  0  0  0  0  0  0  0
   16.6468   70.0375   -6.0893 O   0  0  0  0  0  0  0  0  0  0  0  0
   18.3453   70.2573  -10.3684 O   0  0  0  0  0  0  0  0  0  0  0  0
   18.8625   70.7257   -6.3641 N   0  0  0  0  0  0  0  0  0  0  0  0
   17.4954   70.1468   -8.2194 N   0  0  0  0  0  0  0  0  0  0  0  0
   17.6004   70.2865   -6.8292 C   0  0  0  0  0  0  0  0  0  0  0  0
   19.8863   70.9870   -7.2666 C   0  0  0  0  0  0  0  0  0  0  0  0
   19.7711   70.8494   -8.5889 C   0  0  0  0  0  0  0  0  0  0  0  0
   18.4852   70.3939   -9.1568 C   0  0  0  0  0  0  0  0  0  0  0  0
   16.6267   69.8402   -8.5668 H   0  0  0  0  0  0  0  0  0  0  0  0
   22.0479   76.4078   -3.1731 O   0  0  0  0  0  0  0  0  0  0  0  0
   22.4611   76.6791   -1.6338 P   0  0  2  0  0  0  0  0  0  0  0  0
   21.3495   77.7448   -1.1348 O   0  0  0  0  0  0  0  0  0  0  0  0
   23.8801   77.1328   -1.4479 O   0  0  0  0  0  0  0  0  0  0  0  0
   22.0889   75.3117   -0.8631 O   0  0  0  0  0  0  0  0  0  0  0  0
   22.9154   75.0573    1.3418 O   0  0  0  0  0  0  0  0  0  0  0  0
   21.6809   71.2150    0.4582 O   0  0  0  0  0  0  0  0  0  0  0  0
   23.1006   72.8096   -1.5358 O   0  0  0  0  0  0  0  0  0  0  0  0
   20.0857   72.8919    2.2172 O   0  0  0  0  0  0  0  0  0  0  0  0
   21.6464   72.6409    0.3989 C   0  0  2  0  0  0  0  0  0  0  0  0
   22.9692   73.1619   -0.1635 C   0  0  2  0  0  0  0  0  0  0  0  0
   21.4271   73.1681    1.8187 C   0  0  1  0  0  0  0  0  0  0  0  0
   23.0599   74.6826   -0.0287 C   0  0  1  0  0  0  0  0  0  0  0  0
   21.6585   74.6745    1.8955 C   0  0  1  0  0  0  0  0  0  0  0  0
   21.8194   70.8574   -0.4330 H   0  0  0  0  0  0  0  0  0  0  0  0
   23.0437   71.8461   -1.6287 H   0  0  0  0  0  0  0  0  0  0  0  0
   19.9254   71.9363    2.1726 H   0  0  0  0  0  0  0  0  0  0  0  0
   22.9297   74.6917    3.8666 O   0  0  0  0  0  0  0  0  0  0  0  0
   20.9308   75.7879    3.9085 O   0  0  0  0  0  0  0  0  0  0  0  0
   21.7675   75.1226    3.3166 C   0  0  0  0  0  0  0  0  0  0  0  0
  1  4  1  0
  1 24  1  0
  1  2  1  6
  1  3  2  0
 25 28  1  0
 25 24  1  0
 25 26  1  1
 25 27  2  0
  6 11  1  0
  6 12  1  0
 29 36  1  0
 29 37  1  0
  9  7  1  1
  7 13  1  0
 10  8  1  1
  8 14  1  0
  4  5  1  0
 36 28  1  6
 33 30  1  1
 30 38  1  0
 34 31  1  6
 31 39  1  0
 35 32  1  6
 32 40  1  0
 41 43  1  0
 15 19  2  0
 42 43  2  0
 16 22  2  0
 12 17  1  6
 17 19  1  0
 17 20  1  0
 18 19  1  0
 18 22  1  0
 18 23  1  0
  9 10  1  0
  9 11  1  0
 10 12  1  0
 11  5  1  6
 33 34  1  0
 33 35  1  0
 34 36  1  0
 35 37  1  0
 37 43  1  1
 20 21  2  0
 21 22  1  0
M  CHG  3   2  -1  26  -1  41  -1
M  END
>  <COMPND>  (120) 
    udp_gluA.pdb 

>  <AUTHOR>  (120) 
    GENERATED BY OPEN BABEL 3.1.1

>  <MASTER>  (120) 
        0    0    0    0    0    0    0    0   56    0   56    0

>  <minimizedAffinity>  (120) 
-6.78546

>  <CNNscore>  (120) 
0.2819011509

>  <CNNaffinity>  (120) 
4.0765585899

>  <CNN_VS>  (120) 
1.1491866112

>  <CNNaffinity_variance>  (120) 
0.1898486316

$$$$
121
     RDKit          3D

 43 45  0  0  0  0  0  0  0  0999 V2000
   22.5883   71.6986   -2.6529 P   0  0  2  0  0  0  0  0  0  0  0  0
   22.8273   73.2618   -2.9964 O   0  0  0  0  0  0  0  0  0  0  0  0
   23.8165   70.8393   -2.7241 O   0  0  0  0  0  0  0  0  0  0  0  0
   21.3719   71.2678   -3.6289 O   0  0  0  0  0  0  0  0  0  0  0  0
   20.7956   69.9850   -3.4654 C   0  0  0  0  0  0  0  0  0  0  0  0
   18.7045   70.9763   -4.1153 O   0  0  0  0  0  0  0  0  0  0  0  0
   17.4053   68.9824   -2.2910 O   0  0  0  0  0  0  0  0  0  0  0  0
   17.0227   67.8749   -4.7534 O   0  0  0  0  0  0  0  0  0  0  0  0
   18.5545   68.8300   -3.1245 C   0  0  1  0  0  0  0  0  0  0  0  0
   18.1386   68.7222   -4.5762 C   0  0  2  0  0  0  0  0  0  0  0  0
   19.3229   70.1444   -3.1100 C   0  0  1  0  0  0  0  0  0  0  0  0
   17.8354   70.1692   -4.9257 C   0  0  2  0  0  0  0  0  0  0  0  0
   16.8983   68.1550   -2.2845 H   0  0  0  0  0  0  0  0  0  0  0  0
   17.2667   66.9655   -4.5182 H   0  0  0  0  0  0  0  0  0  0  0  0
   15.8930   69.9778   -6.9670 O   0  0  0  0  0  0  0  0  0  0  0  0
   18.8935   71.3171  -10.1992 O   0  0  0  0  0  0  0  0  0  0  0  0
   18.0820   70.4620   -6.3093 N   0  0  0  0  0  0  0  0  0  0  0  0
   17.3896   70.6441   -8.5751 N   0  0  0  0  0  0  0  0  0  0  0  0
   17.0372   70.3340   -7.2549 C   0  0  0  0  0  0  0  0  0  0  0  0
   19.3455   70.8722   -6.7170 C   0  0  0  0  0  0  0  0  0  0  0  0
   19.6661   71.1644   -7.9789 C   0  0  0  0  0  0  0  0  0  0  0  0
   18.6323   71.0554   -9.0290 C   0  0  0  0  0  0  0  0  0  0  0  0
   16.6793   70.5603   -9.2517 H   0  0  0  0  0  0  0  0  0  0  0  0
   21.8860   71.7500   -1.1979 O   0  0  0  0  0  0  0  0  0  0  0  0
   20.5696   72.5339   -0.6818 P   0  0  2  0  0  0  0  0  0  0  0  0
   19.6431   71.3481   -0.0853 O   0  0  0  0  0  0  0  0  0  0  0  0
   19.9006   73.3722   -1.7324 O   0  0  0  0  0  0  0  0  0  0  0  0
   21.0647   73.3554    0.6152 O   0  0  0  0  0  0  0  0  0  0  0  0
   23.1704   74.3917    0.2971 O   0  0  0  0  0  0  0  0  0  0  0  0
   22.4966   75.0734    4.3157 O   0  0  0  0  0  0  0  0  0  0  0  0
   21.8708   72.4784    3.1286 O   0  0  0  0  0  0  0  0  0  0  0  0
   22.1590   77.2279    2.3935 O   0  0  0  0  0  0  0  0  0  0  0  0
   22.1355   74.8833    2.9477 C   0  0  2  0  0  0  0  0  0  0  0  0
   22.6095   73.5071    2.4798 C   0  0  2  0  0  0  0  0  0  0  0  0
   22.8056   75.9854    2.1242 C   0  0  1  0  0  0  0  0  0  0  0  0
   22.4472   73.3580    0.9664 C   0  0  1  0  0  0  0  0  0  0  0  0
   22.7095   75.6997    0.6283 C   0  0  1  0  0  0  0  0  0  0  0  0
   22.0821   74.3842    4.8585 H   0  0  0  0  0  0  0  0  0  0  0  0
   21.9691   72.5672    4.0892 H   0  0  0  0  0  0  0  0  0  0  0  0
   22.2130   77.4215    3.3424 H   0  0  0  0  0  0  0  0  0  0  0  0
   23.5635   76.3138   -1.4681 O   0  0  0  0  0  0  0  0  0  0  0  0
   24.3548   77.4421    0.3484 O   0  0  0  0  0  0  0  0  0  0  0  0
   23.6337   76.5860   -0.1415 C   0  0  0  0  0  0  0  0  0  0  0  0
  1  4  1  0
  1 24  1  0
  1  2  1  6
  1  3  2  0
 25 28  1  0
 25 24  1  0
 25 26  1  1
 25 27  2  0
  6 11  1  0
  6 12  1  0
 29 36  1  0
 29 37  1  0
  9  7  1  1
  7 13  1  0
 10  8  1  1
  8 14  1  0
  4  5  1  0
 36 28  1  1
 33 30  1  1
 30 38  1  0
 34 31  1  1
 31 39  1  0
 35 32  1  6
 32 40  1  0
 41 43  1  0
 15 19  2  0
 42 43  2  0
 16 22  2  0
 12 17  1  6
 17 19  1  0
 17 20  1  0
 18 19  1  0
 18 22  1  0
 18 23  1  0
  9 10  1  0
  9 11  1  0
 10 12  1  0
 11  5  1  6
 33 34  1  0
 33 35  1  0
 34 36  1  0
 35 37  1  0
 37 43  1  6
 20 21  2  0
 21 22  1  0
M  CHG  3   2  -1  26  -1  41  -1
M  END
>  <COMPND>  (121) 
    udp_gluA.pdb 

>  <AUTHOR>  (121) 
    GENERATED BY OPEN BABEL 3.1.1

>  <MASTER>  (121) 
        0    0    0    0    0    0    0    0   56    0   56    0

>  <minimizedAffinity>  (121) 
-7.24614

>  <CNNscore>  (121) 
0.7186232209

>  <CNNaffinity>  (121) 
4.5242815018

>  <CNN_VS>  (121) 
3.2512538433

>  <CNNaffinity_variance>  (121) 
0.0139342966

$$$$
122
     RDKit          3D

 43 45  0  0  0  0  0  0  0  0999 V2000
   22.6993   71.1230   -3.0434 P   0  0  2  0  0  0  0  0  0  0  0  0
   23.7510   72.1083   -3.7795 O   0  0  0  0  0  0  0  0  0  0  0  0
   23.2145   69.7418   -2.7633 O   0  0  0  0  0  0  0  0  0  0  0  0
   21.3759   71.2046   -3.9708 O   0  0  0  0  0  0  0  0  0  0  0  0
   20.6077   72.3937   -3.9495 C   0  0  0  0  0  0  0  0  0  0  0  0
   18.3882   72.1597   -4.8420 O   0  0  0  0  0  0  0  0  0  0  0  0
   17.7736   70.5452   -2.3910 O   0  0  0  0  0  0  0  0  0  0  0  0
   18.1527   68.6250   -4.2897 O   0  0  0  0  0  0  0  0  0  0  0  0
   18.9798   70.6086   -3.1524 C   0  0  1  0  0  0  0  0  0  0  0  0
   18.8150   69.8609   -4.4585 C   0  0  2  0  0  0  0  0  0  0  0  0
   19.1606   72.0438   -3.6274 C   0  0  1  0  0  0  0  0  0  0  0  0
   18.0100   70.8474   -5.2872 C   0  0  2  0  0  0  0  0  0  0  0  0
   17.6367   69.6374   -2.0766 H   0  0  0  0  0  0  0  0  0  0  0  0
   18.7056   68.0322   -3.7561 H   0  0  0  0  0  0  0  0  0  0  0  0
   16.0629   70.2656   -7.2486 O   0  0  0  0  0  0  0  0  0  0  0  0
   19.1717   70.4370  -10.6472 O   0  0  0  0  0  0  0  0  0  0  0  0
   18.2831   70.7341   -6.6920 N   0  0  0  0  0  0  0  0  0  0  0  0
   17.6133   70.3505   -8.9393 N   0  0  0  0  0  0  0  0  0  0  0  0
   17.2334   70.4384   -7.5935 C   0  0  0  0  0  0  0  0  0  0  0  0
   19.5773   70.9168   -7.1638 C   0  0  0  0  0  0  0  0  0  0  0  0
   19.9240   70.8300   -8.4495 C   0  0  0  0  0  0  0  0  0  0  0  0
   18.8870   70.5234   -9.4565 C   0  0  0  0  0  0  0  0  0  0  0  0
   16.9000   70.1435   -9.5856 H   0  0  0  0  0  0  0  0  0  0  0  0
   22.2743   71.9625   -1.7291 O   0  0  0  0  0  0  0  0  0  0  0  0
   21.8854   71.4745   -0.2377 P   0  0  2  0  0  0  0  0  0  0  0  0
   23.2828   70.8946    0.3379 O   0  0  0  0  0  0  0  0  0  0  0  0
   20.7438   70.5008   -0.1865 O   0  0  0  0  0  0  0  0  0  0  0  0
   21.6396   72.8383    0.5882 O   0  0  0  0  0  0  0  0  0  0  0  0
   22.2077   73.5464    2.7757 O   0  0  0  0  0  0  0  0  0  0  0  0
   18.4527   75.2035    2.3043 O   0  0  0  0  0  0  0  0  0  0  0  0
   18.9979   72.4851    1.3837 O   0  0  0  0  0  0  0  0  0  0  0  0
   20.8208   76.8797    2.1220 O   0  0  0  0  0  0  0  0  0  0  0  0
   19.7358   74.7420    1.8818 C   0  0  2  0  0  0  0  0  0  0  0  0
   19.8745   73.2530    2.2001 C   0  0  2  0  0  0  0  0  0  0  0  0
   20.7988   75.5478    2.6318 C   0  0  1  0  0  0  0  0  0  0  0  0
   21.3101   72.7767    1.9747 C   0  0  1  0  0  0  0  0  0  0  0  0
   22.1863   74.9364    2.4590 C   0  0  1  0  0  0  0  0  0  0  0  0
   17.7610   74.7055    1.8408 H   0  0  0  0  0  0  0  0  0  0  0  0
   18.0851   72.7822    1.5215 H   0  0  0  0  0  0  0  0  0  0  0  0
   19.9435   77.2802    2.2258 H   0  0  0  0  0  0  0  0  0  0  0  0
   23.3280   74.6800    4.4918 O   0  0  0  0  0  0  0  0  0  0  0  0
   23.7045   76.6009    3.3225 O   0  0  0  0  0  0  0  0  0  0  0  0
   23.1489   75.5193    3.4418 C   0  0  0  0  0  0  0  0  0  0  0  0
  1  4  1  0
  1 24  1  0
  1  2  1  6
  1  3  2  0
 25 28  1  0
 25 24  1  0
 25 26  1  1
 25 27  2  0
  6 11  1  0
  6 12  1  0
 29 36  1  0
 29 37  1  0
  9  7  1  1
  7 13  1  0
 10  8  1  1
  8 14  1  0
  4  5  1  0
 36 28  1  6
 33 30  1  1
 30 38  1  0
 34 31  1  6
 31 39  1  0
 35 32  1  6
 32 40  1  0
 41 43  1  0
 15 19  2  0
 42 43  2  0
 16 22  2  0
 12 17  1  6
 17 19  1  0
 17 20  1  0
 18 19  1  0
 18 22  1  0
 18 23  1  0
  9 10  1  0
  9 11  1  0
 10 12  1  0
 11  5  1  6
 33 34  1  0
 33 35  1  0
 34 36  1  0
 35 37  1  0
 37 43  1  1
 20 21  2  0
 21 22  1  0
M  CHG  3   2  -1  26  -1  41  -1
M  END
>  <COMPND>  (122) 
    udp_gluA.pdb 

>  <AUTHOR>  (122) 
    GENERATED BY OPEN BABEL 3.1.1

>  <MASTER>  (122) 
        0    0    0    0    0    0    0    0   56    0   56    0

>  <minimizedAffinity>  (122) 
-7.85537

>  <CNNscore>  (122) 
0.6461104751

>  <CNNaffinity>  (122) 
4.5332059860

>  <CNN_VS>  (122) 
2.9289519787

>  <CNNaffinity_variance>  (122) 
0.1860618442

$$$$
123
     RDKit          3D

 43 45  0  0  0  0  0  0  0  0999 V2000
   22.4928   71.1495   -3.0400 P   0  0  2  0  0  0  0  0  0  0  0  0
   23.5023   72.0980   -3.8767 O   0  0  0  0  0  0  0  0  0  0  0  0
   23.0309   69.7885   -2.7082 O   0  0  0  0  0  0  0  0  0  0  0  0
   21.1280   71.1728   -3.9087 O   0  0  0  0  0  0  0  0  0  0  0  0
   20.0532   70.3461   -3.5016 C   0  0  0  0  0  0  0  0  0  0  0  0
   18.6846   71.8348   -4.8009 O   0  0  0  0  0  0  0  0  0  0  0  0
   16.4549   71.1209   -2.9274 O   0  0  0  0  0  0  0  0  0  0  0  0
   15.9099   69.5860   -5.1145 O   0  0  0  0  0  0  0  0  0  0  0  0
   17.5105   70.3012   -3.4296 C   0  0  1  0  0  0  0  0  0  0  0  0
   17.2548   69.9472   -4.8793 C   0  0  2  0  0  0  0  0  0  0  0  0
   18.7650   71.1585   -3.5275 C   0  0  1  0  0  0  0  0  0  0  0  0
   17.6490   71.2299   -5.5915 C   0  0  2  0  0  0  0  0  0  0  0  0
   15.6426   70.5948   -2.8561 H   0  0  0  0  0  0  0  0  0  0  0  0
   15.7083   68.7637   -4.6401 H   0  0  0  0  0  0  0  0  0  0  0  0
   16.0247   70.7584   -7.8533 O   0  0  0  0  0  0  0  0  0  0  0  0
   19.6861   70.3208  -10.6185 O   0  0  0  0  0  0  0  0  0  0  0  0
   18.1516   70.9898   -6.9146 N   0  0  0  0  0  0  0  0  0  0  0  0
   17.8498   70.5399   -9.2282 N   0  0  0  0  0  0  0  0  0  0  0  0
   17.2504   70.7639   -7.9818 C   0  0  0  0  0  0  0  0  0  0  0  0
   19.5219   70.9814   -7.1450 C   0  0  0  0  0  0  0  0  0  0  0  0
   20.0784   70.7666   -8.3388 C   0  0  0  0  0  0  0  0  0  0  0  0
   19.2069   70.5213   -9.5066 C   0  0  0  0  0  0  0  0  0  0  0  0
   17.2427   70.3781   -9.9862 H   0  0  0  0  0  0  0  0  0  0  0  0
   22.1217   72.0583   -1.7557 O   0  0  0  0  0  0  0  0  0  0  0  0
   21.8650   71.6579   -0.2106 P   0  0  2  0  0  0  0  0  0  0  0  0
   23.2054   70.8425    0.1878 O   0  0  0  0  0  0  0  0  0  0  0  0
   20.5888   70.9034    0.0261 O   0  0  0  0  0  0  0  0  0  0  0  0
   21.9797   73.0495    0.5973 O   0  0  0  0  0  0  0  0  0  0  0  0
   20.3174   74.5883    1.2886 O   0  0  0  0  0  0  0  0  0  0  0  0
   23.4972   77.0963    0.4719 O   0  0  0  0  0  0  0  0  0  0  0  0
   22.8747   74.8660   -1.3093 O   0  0  0  0  0  0  0  0  0  0  0  0
   22.7916   76.4837    3.2247 O   0  0  0  0  0  0  0  0  0  0  0  0
   22.8660   75.8866    0.8917 C   0  0  2  0  0  0  0  0  0  0  0  0
   22.0313   75.3196   -0.2570 C   0  0  2  0  0  0  0  0  0  0  0  0
   21.9713   76.2112    2.0901 C   0  0  1  0  0  0  0  0  0  0  0  0
   21.1617   74.1560    0.2211 C   0  0  1  0  0  0  0  0  0  0  0  0
   21.0456   75.0455    2.4261 C   0  0  1  0  0  0  0  0  0  0  0  0
   24.0710   76.9146   -0.2890 H   0  0  0  0  0  0  0  0  0  0  0  0
   23.4295   75.5993   -1.6173 H   0  0  0  0  0  0  0  0  0  0  0  0
   23.3857   77.2237    3.0239 H   0  0  0  0  0  0  0  0  0  0  0  0
   18.7440   75.2868    2.8080 O   0  0  0  0  0  0  0  0  0  0  0  0
   20.1499   75.9409    4.4797 O   0  0  0  0  0  0  0  0  0  0  0  0
   19.9660   75.4788    3.3637 C   0  0  0  0  0  0  0  0  0  0  0  0
  1  4  1  0
  1 24  1  0
  1  2  1  6
  1  3  2  0
 25 28  1  0
 25 24  1  0
 25 26  1  1
 25 27  2  0
  6 11  1  0
  6 12  1  0
 29 36  1  0
 29 37  1  0
  9  7  1  6
  7 13  1  0
 10  8  1  1
  8 14  1  0
  4  5  1  0
 36 28  1  1
 33 30  1  6
 30 38  1  0
 34 31  1  6
 31 39  1  0
 35 32  1  1
 32 40  1  0
 41 43  1  0
 15 19  2  0
 42 43  2  0
 16 22  2  0
 12 17  1  6
 17 19  1  0
 17 20  1  0
 18 19  1  0
 18 22  1  0
 18 23  1  0
  9 10  1  0
  9 11  1  0
 10 12  1  0
 11  5  1  6
 33 34  1  0
 33 35  1  0
 34 36  1  0
 35 37  1  0
 37 43  1  1
 20 21  2  0
 21 22  1  0
M  CHG  3   2  -1  26  -1  41  -1
M  END
>  <COMPND>  (123) 
    udp_gluA.pdb 

>  <AUTHOR>  (123) 
    GENERATED BY OPEN BABEL 3.1.1

>  <MASTER>  (123) 
        0    0    0    0    0    0    0    0   56    0   56    0

>  <minimizedAffinity>  (123) 
-7.50205

>  <CNNscore>  (123) 
0.6085031033

>  <CNNaffinity>  (123) 
4.6059479713

>  <CNN_VS>  (123) 
2.8027336597

>  <CNNaffinity_variance>  (123) 
0.1762582064

$$$$
124
     RDKit          3D

 43 45  0  0  0  0  0  0  0  0999 V2000
   22.6290   72.8197   -4.0334 P   0  0  2  0  0  0  0  0  0  0  0  0
   24.0730   72.9398   -4.7539 O   0  0  0  0  0  0  0  0  0  0  0  0
   22.2685   73.9710   -3.1410 O   0  0  0  0  0  0  0  0  0  0  0  0
   22.6687   71.3662   -3.3236 O   0  0  0  0  0  0  0  0  0  0  0  0
   23.4256   71.2138   -2.1368 C   0  0  0  0  0  0  0  0  0  0  0  0
   22.8924   71.0521    0.2014 O   0  0  0  0  0  0  0  0  0  0  0  0
   20.3944   69.6327   -0.6569 O   0  0  0  0  0  0  0  0  0  0  0  0
   19.4966   72.1531   -0.1302 O   0  0  0  0  0  0  0  0  0  0  0  0
   21.0803   70.7153   -1.2863 C   0  0  1  0  0  0  0  0  0  0  0  0
   20.8450   72.0004   -0.5213 C   0  0  2  0  0  0  0  0  0  0  0  0
   22.5752   70.4993   -1.0944 C   0  0  1  0  0  0  0  0  0  0  0  0
   21.7826   71.8386    0.6631 C   0  0  2  0  0  0  0  0  0  0  0  0
   19.4372   69.7487   -0.7662 H   0  0  0  0  0  0  0  0  0  0  0  0
   18.9404   72.2527   -0.9193 H   0  0  0  0  0  0  0  0  0  0  0  0
   21.9062   72.5535    3.3925 O   0  0  0  0  0  0  0  0  0  0  0  0
   23.6808   76.6936    2.4159 O   0  0  0  0  0  0  0  0  0  0  0  0
   22.2726   73.0970    1.1500 N   0  0  0  0  0  0  0  0  0  0  0  0
   22.7890   74.6152    2.9034 N   0  0  0  0  0  0  0  0  0  0  0  0
   22.2920   73.3564    2.5408 C   0  0  0  0  0  0  0  0  0  0  0  0
   22.7284   74.0571    0.2548 C   0  0  0  0  0  0  0  0  0  0  0  0
   23.1994   75.2525    0.6155 C   0  0  0  0  0  0  0  0  0  0  0  0
   23.2529   75.6031    2.0500 C   0  0  0  0  0  0  0  0  0  0  0  0
   22.8104   74.8196    3.8663 H   0  0  0  0  0  0  0  0  0  0  0  0
   21.6213   72.5898   -5.2762 O   0  0  0  0  0  0  0  0  0  0  0  0
   20.2886   73.3880   -5.7238 P   0  0  2  0  0  0  0  0  0  0  0  0
   20.8722   74.7679   -6.3365 O   0  0  0  0  0  0  0  0  0  0  0  0
   19.2845   73.5758   -4.6235 O   0  0  0  0  0  0  0  0  0  0  0  0
   19.7356   72.5761   -7.0034 O   0  0  0  0  0  0  0  0  0  0  0  0
   19.1358   70.4715   -6.0978 O   0  0  0  0  0  0  0  0  0  0  0  0
   17.7291   70.1526   -9.9692 O   0  0  0  0  0  0  0  0  0  0  0  0
   20.3328   71.3647   -9.4349 O   0  0  0  0  0  0  0  0  0  0  0  0
   15.8762   70.6105   -7.7764 O   0  0  0  0  0  0  0  0  0  0  0  0
   18.0665   70.8262   -8.7566 C   0  0  2  0  0  0  0  0  0  0  0  0
   19.5594   70.6549   -8.4744 C   0  0  2  0  0  0  0  0  0  0  0  0
   17.2373   70.2109   -7.6272 C   0  0  1  0  0  0  0  0  0  0  0  0
   19.9136   71.1626   -7.0760 C   0  0  1  0  0  0  0  0  0  0  0  0
   17.7329   70.6693   -6.2587 C   0  0  1  0  0  0  0  0  0  0  0  0
   18.2440   70.5268  -10.7013 H   0  0  0  0  0  0  0  0  0  0  0  0
   20.1130   71.0478  -10.3246 H   0  0  0  0  0  0  0  0  0  0  0  0
   15.5486   70.3249   -8.6436 H   0  0  0  0  0  0  0  0  0  0  0  0
   18.1015   69.4739   -4.2746 O   0  0  0  0  0  0  0  0  0  0  0  0
   15.9746   69.4955   -5.0961 O   0  0  0  0  0  0  0  0  0  0  0  0
   17.1485   69.8256   -5.1729 C   0  0  0  0  0  0  0  0  0  0  0  0
  1  4  1  0
  1 24  1  0
  1  2  1  6
  1  3  2  0
 25 28  1  0
 25 24  1  0
 25 26  1  6
 25 27  2  0
  6 11  1  0
  6 12  1  0
 29 36  1  0
 29 37  1  0
  9  7  1  1
  7 13  1  0
 10  8  1  1
  8 14  1  0
  4  5  1  0
 36 28  1  6
 33 30  1  6
 30 38  1  0
 34 31  1  6
 31 39  1  0
 35 32  1  6
 32 40  1  0
 41 43  1  0
 15 19  2  0
 42 43  2  0
 16 22  2  0
 12 17  1  6
 17 19  1  0
 17 20  1  0
 18 19  1  0
 18 22  1  0
 18 23  1  0
  9 10  1  0
  9 11  1  0
 10 12  1  0
 11  5  1  6
 33 34  1  0
 33 35  1  0
 34 36  1  0
 35 37  1  0
 37 43  1  1
 20 21  2  0
 21 22  1  0
M  CHG  3   2  -1  26  -1  41  -1
M  END
>  <COMPND>  (124) 
    udp_gluA.pdb 

>  <AUTHOR>  (124) 
    GENERATED BY OPEN BABEL 3.1.1

>  <MASTER>  (124) 
        0    0    0    0    0    0    0    0   56    0   56    0

>  <minimizedAffinity>  (124) 
-8.71246

>  <CNNscore>  (124) 
0.5667849779

>  <CNNaffinity>  (124) 
4.3282079697

>  <CNN_VS>  (124) 
2.4531631470

>  <CNNaffinity_variance>  (124) 
0.1565133184

$$$$
125
     RDKit          3D

 43 45  0  0  0  0  0  0  0  0999 V2000
   20.1565   70.6928   -1.4719 P   0  0  2  0  0  0  0  0  0  0  0  0
   19.3662   69.2816   -1.4185 O   0  0  0  0  0  0  0  0  0  0  0  0
   19.3207   71.8992   -1.1590 O   0  0  0  0  0  0  0  0  0  0  0  0
   20.8647   70.6867   -2.9267 O   0  0  0  0  0  0  0  0  0  0  0  0
   20.7629   71.8460   -3.7330 C   0  0  0  0  0  0  0  0  0  0  0  0
   20.0981   70.3119   -5.4600 O   0  0  0  0  0  0  0  0  0  0  0  0
   21.1848   72.3197   -7.4040 O   0  0  0  0  0  0  0  0  0  0  0  0
   18.4978   72.7690   -7.5230 O   0  0  0  0  0  0  0  0  0  0  0  0
   20.5033   72.5357   -6.1681 C   0  0  1  0  0  0  0  0  0  0  0  0
   19.0268   72.2399   -6.3251 C   0  0  2  0  0  0  0  0  0  0  0  0
   20.9434   71.4519   -5.1933 C   0  0  1  0  0  0  0  0  0  0  0  0
   19.0046   70.7212   -6.2966 C   0  0  2  0  0  0  0  0  0  0  0  0
   20.9197   73.0002   -8.0430 H   0  0  0  0  0  0  0  0  0  0  0  0
   18.5340   73.7383   -7.4920 H   0  0  0  0  0  0  0  0  0  0  0  0
   16.6416   70.3180   -7.7901 O   0  0  0  0  0  0  0  0  0  0  0  0
   14.3714   68.7204   -4.1108 O   0  0  0  0  0  0  0  0  0  0  0  0
   17.7815   70.2011   -5.7540 N   0  0  0  0  0  0  0  0  0  0  0  0
   15.5129   69.5237   -5.9559 N   0  0  0  0  0  0  0  0  0  0  0  0
   16.6517   70.0374   -6.5901 C   0  0  0  0  0  0  0  0  0  0  0  0
   17.7098   69.8579   -4.4094 C   0  0  0  0  0  0  0  0  0  0  0  0
   16.6173   69.3693   -3.8192 C   0  0  0  0  0  0  0  0  0  0  0  0
   15.3932   69.1684   -4.6221 C   0  0  0  0  0  0  0  0  0  0  0  0
   14.7131   69.4028   -6.5172 H   0  0  0  0  0  0  0  0  0  0  0  0
   21.3965   70.4527   -0.4631 O   0  0  0  0  0  0  0  0  0  0  0  0
   22.6806   71.3736   -0.1215 P   0  0  2  0  0  0  0  0  0  0  0  0
   23.1658   71.8866   -1.5781 O   0  0  0  0  0  0  0  0  0  0  0  0
   23.7449   70.6753    0.6744 O   0  0  0  0  0  0  0  0  0  0  0  0
   22.0662   72.6855    0.5883 O   0  0  0  0  0  0  0  0  0  0  0  0
   22.6951   73.5199    2.7137 O   0  0  0  0  0  0  0  0  0  0  0  0
   18.8482   74.9800    2.3420 O   0  0  0  0  0  0  0  0  0  0  0  0
   19.4817   72.2494    1.5192 O   0  0  0  0  0  0  0  0  0  0  0  0
   21.1234   76.7524    1.9767 O   0  0  0  0  0  0  0  0  0  0  0  0
   20.1322   74.5584    1.8819 C   0  0  2  0  0  0  0  0  0  0  0  0
   20.3556   73.0938    2.2595 C   0  0  2  0  0  0  0  0  0  0  0  0
   21.1873   75.4461    2.5458 C   0  0  1  0  0  0  0  0  0  0  0  0
   21.8011   72.6736    1.9898 C   0  0  1  0  0  0  0  0  0  0  0  0
   22.5935   74.8913    2.3368 C   0  0  1  0  0  0  0  0  0  0  0  0
   18.1615   74.4299    1.9333 H   0  0  0  0  0  0  0  0  0  0  0  0
   18.5627   72.5106    1.6854 H   0  0  0  0  0  0  0  0  0  0  0  0
   20.2333   77.1168    2.1028 H   0  0  0  0  0  0  0  0  0  0  0  0
   23.8438   76.8177    2.8134 O   0  0  0  0  0  0  0  0  0  0  0  0
   24.0558   75.0586    4.2486 O   0  0  0  0  0  0  0  0  0  0  0  0
   23.5693   75.5627    3.2475 C   0  0  0  0  0  0  0  0  0  0  0  0
  1  4  1  0
  1 24  1  0
  1  2  1  6
  1  3  2  0
 25 28  1  0
 25 24  1  0
 25 26  1  6
 25 27  2  0
  6 11  1  0
  6 12  1  0
 29 36  1  0
 29 37  1  0
  9  7  1  6
  7 13  1  0
 10  8  1  6
  8 14  1  0
  4  5  1  0
 36 28  1  6
 33 30  1  1
 30 38  1  0
 34 31  1  6
 31 39  1  0
 35 32  1  6
 32 40  1  0
 41 43  1  0
 15 19  2  0
 42 43  2  0
 16 22  2  0
 12 17  1  1
 17 19  1  0
 17 20  1  0
 18 19  1  0
 18 22  1  0
 18 23  1  0
  9 10  1  0
  9 11  1  0
 10 12  1  0
 11  5  1  1
 33 34  1  0
 33 35  1  0
 34 36  1  0
 35 37  1  0
 37 43  1  1
 20 21  2  0
 21 22  1  0
M  CHG  3   2  -1  26  -1  41  -1
M  END
>  <COMPND>  (125) 
    udp_gluA.pdb 

>  <AUTHOR>  (125) 
    GENERATED BY OPEN BABEL 3.1.1

>  <MASTER>  (125) 
        0    0    0    0    0    0    0    0   56    0   56    0

>  <minimizedAffinity>  (125) 
-7.54278

>  <CNNscore>  (125) 
0.5561320186

>  <CNNaffinity>  (125) 
4.3505640030

>  <CNN_VS>  (125) 
2.4194879532

>  <CNNaffinity_variance>  (125) 
0.1329717338

$$$$
126
     RDKit          3D

 43 45  0  0  0  0  0  0  0  0999 V2000
   19.5412   69.7976   -2.6919 P   0  0  2  0  0  0  0  0  0  0  0  0
   19.5962   69.3099   -1.1498 O   0  0  0  0  0  0  0  0  0  0  0  0
   20.4794   69.0797   -3.6172 O   0  0  0  0  0  0  0  0  0  0  0  0
   19.7357   71.4012   -2.5994 O   0  0  0  0  0  0  0  0  0  0  0  0
   18.6098   72.2021   -2.2907 C   0  0  0  0  0  0  0  0  0  0  0  0
   20.0061   72.5700   -0.3691 O   0  0  0  0  0  0  0  0  0  0  0  0
   19.4035   75.4863   -0.7215 O   0  0  0  0  0  0  0  0  0  0  0  0
   21.8937   75.2567   -1.8089 O   0  0  0  0  0  0  0  0  0  0  0  0
   19.5928   74.4764   -1.7129 C   0  0  1  0  0  0  0  0  0  0  0  0
   21.0595   74.1171   -1.8218 C   0  0  2  0  0  0  0  0  0  0  0  0
   18.9860   73.1826   -1.1873 C   0  0  1  0  0  0  0  0  0  0  0  0
   21.2589   73.2327   -0.6028 C   0  0  2  0  0  0  0  0  0  0  0  0
   19.7833   76.3225   -1.0347 H   0  0  0  0  0  0  0  0  0  0  0  0
   21.7292   75.7867   -2.6052 H   0  0  0  0  0  0  0  0  0  0  0  0
   22.3351   71.6113    1.4440 O   0  0  0  0  0  0  0  0  0  0  0  0
   25.1718   69.4715   -1.4916 O   0  0  0  0  0  0  0  0  0  0  0  0
   22.2797   72.2437   -0.8044 N   0  0  0  0  0  0  0  0  0  0  0  0
   23.7477   70.5478   -0.0199 N   0  0  0  0  0  0  0  0  0  0  0  0
   22.7514   71.4825    0.2912 C   0  0  0  0  0  0  0  0  0  0  0  0
   22.8014   72.0345   -2.0753 C   0  0  0  0  0  0  0  0  0  0  0  0
   23.7508   71.1398   -2.3562 C   0  0  0  0  0  0  0  0  0  0  0  0
   24.2985   70.3041   -1.2676 C   0  0  0  0  0  0  0  0  0  0  0  0
   24.0932   70.0074    0.7271 H   0  0  0  0  0  0  0  0  0  0  0  0
   17.9764   69.6423   -3.0661 O   0  0  0  0  0  0  0  0  0  0  0  0
   17.2538   69.0126   -4.3680 P   0  0  2  0  0  0  0  0  0  0  0  0
   15.7887   69.7007   -4.3468 O   0  0  0  0  0  0  0  0  0  0  0  0
   17.2317   67.5117   -4.3945 O   0  0  0  0  0  0  0  0  0  0  0  0
   18.0053   69.6934   -5.6226 O   0  0  0  0  0  0  0  0  0  0  0  0
   18.9587   71.8593   -5.7177 O   0  0  0  0  0  0  0  0  0  0  0  0
   17.9661   71.2032   -9.6740 O   0  0  0  0  0  0  0  0  0  0  0  0
   16.1285   70.4305   -7.5385 O   0  0  0  0  0  0  0  0  0  0  0  0
   20.7356   71.0069   -8.8126 O   0  0  0  0  0  0  0  0  0  0  0  0
   18.3759   70.8397   -8.3558 C   0  0  2  0  0  0  0  0  0  0  0  0
   17.2890   71.2332   -7.3552 C   0  0  2  0  0  0  0  0  0  0  0  0
   19.6789   71.5796   -8.0447 C   0  0  1  0  0  0  0  0  0  0  0  0
   17.7844   71.0715   -5.9174 C   0  0  1  0  0  0  0  0  0  0  0  0
   20.0391   71.4755   -6.5655 C   0  0  1  0  0  0  0  0  0  0  0  0
   17.1397   70.7450   -9.8938 H   0  0  0  0  0  0  0  0  0  0  0  0
   15.8089   70.5281   -8.4488 H   0  0  0  0  0  0  0  0  0  0  0  0
   20.5187   71.0666   -9.7561 H   0  0  0  0  0  0  0  0  0  0  0  0
   20.6616   73.3369   -5.2813 O   0  0  0  0  0  0  0  0  0  0  0  0
   22.2353   72.4674   -6.6836 O   0  0  0  0  0  0  0  0  0  0  0  0
   21.1091   72.4557   -6.2099 C   0  0  0  0  0  0  0  0  0  0  0  0
  1  4  1  0
  1 24  1  0
  1  2  1  1
  1  3  2  0
 25 28  1  0
 25 24  1  0
 25 26  1  1
 25 27  2  0
  6 11  1  0
  6 12  1  0
 29 36  1  0
 29 37  1  0
  9  7  1  1
  7 13  1  0
 10  8  1  1
  8 14  1  0
  4  5  1  0
 36 28  1  6
 33 30  1  6
 30 38  1  0
 34 31  1  1
 31 39  1  0
 35 32  1  6
 32 40  1  0
 41 43  1  0
 15 19  2  0
 42 43  2  0
 16 22  2  0
 12 17  1  6
 17 19  1  0
 17 20  1  0
 18 19  1  0
 18 22  1  0
 18 23  1  0
  9 10  1  0
  9 11  1  0
 10 12  1  0
 11  5  1  6
 33 34  1  0
 33 35  1  0
 34 36  1  0
 35 37  1  0
 37 43  1  6
 20 21  2  0
 21 22  1  0
M  CHG  3   2  -1  26  -1  41  -1
M  END
>  <COMPND>  (126) 
    udp_gluA.pdb 

>  <AUTHOR>  (126) 
    GENERATED BY OPEN BABEL 3.1.1

>  <MASTER>  (126) 
        0    0    0    0    0    0    0    0   56    0   56    0

>  <minimizedAffinity>  (126) 
-8.39239

>  <CNNscore>  (126) 
0.4961713552

>  <CNNaffinity>  (126) 
4.3131613731

>  <CNN_VS>  (126) 
2.1400671005

>  <CNNaffinity_variance>  (126) 
0.3005869389

$$$$
127
     RDKit          3D

 43 45  0  0  0  0  0  0  0  0999 V2000
   19.5558   69.3761   -3.0258 P   0  0  2  0  0  0  0  0  0  0  0  0
   19.5482   69.2687   -1.4111 O   0  0  0  0  0  0  0  0  0  0  0  0
   19.0765   68.1491   -3.7446 O   0  0  0  0  0  0  0  0  0  0  0  0
   21.0618   69.8524   -3.3765 O   0  0  0  0  0  0  0  0  0  0  0  0
   21.3677   71.2331   -3.3069 C   0  0  0  0  0  0  0  0  0  0  0  0
   22.9845   72.5230   -2.0822 O   0  0  0  0  0  0  0  0  0  0  0  0
   24.8453   70.2018   -2.4575 O   0  0  0  0  0  0  0  0  0  0  0  0
   23.9795   69.8630    0.1060 O   0  0  0  0  0  0  0  0  0  0  0  0
   23.4343   70.2027   -2.2391 C   0  0  1  0  0  0  0  0  0  0  0  0
   23.1277   70.5390   -0.7951 C   0  0  2  0  0  0  0  0  0  0  0  0
   22.8456   71.3977   -2.9764 C   0  0  1  0  0  0  0  0  0  0  0  0
   23.3289   72.0446   -0.7723 C   0  0  2  0  0  0  0  0  0  0  0  0
   25.2438   69.4470   -1.9959 H   0  0  0  0  0  0  0  0  0  0  0  0
   23.8128   68.9082    0.0540 H   0  0  0  0  0  0  0  0  0  0  0  0
   23.6710   74.7097    0.0975 O   0  0  0  0  0  0  0  0  0  0  0  0
   20.0618   74.4343    2.9509 O   0  0  0  0  0  0  0  0  0  0  0  0
   22.4930   72.6946    0.1970 N   0  0  0  0  0  0  0  0  0  0  0  0
   21.8737   74.5697    1.5186 N   0  0  0  0  0  0  0  0  0  0  0  0
   22.7506   74.0364    0.5648 C   0  0  0  0  0  0  0  0  0  0  0  0
   21.4315   72.0054    0.7708 C   0  0  0  0  0  0  0  0  0  0  0  0
   20.6042   72.5272    1.6786 C   0  0  0  0  0  0  0  0  0  0  0  0
   20.8047   73.9236    2.1182 C   0  0  0  0  0  0  0  0  0  0  0  0
   22.0344   75.5018    1.7921 H   0  0  0  0  0  0  0  0  0  0  0  0
   18.6799   70.7055   -3.3053 O   0  0  0  0  0  0  0  0  0  0  0  0
   17.2105   70.8917   -3.9533 P   0  0  2  0  0  0  0  0  0  0  0  0
   16.9329   72.4782   -3.7909 O   0  0  0  0  0  0  0  0  0  0  0  0
   16.1543   70.0139   -3.3468 O   0  0  0  0  0  0  0  0  0  0  0  0
   17.4313   70.6769   -5.5368 O   0  0  0  0  0  0  0  0  0  0  0  0
   18.8141   72.4096   -6.3706 O   0  0  0  0  0  0  0  0  0  0  0  0
   17.9682   70.2811   -9.8088 O   0  0  0  0  0  0  0  0  0  0  0  0
   15.8755   70.8047   -7.8388 O   0  0  0  0  0  0  0  0  0  0  0  0
   20.5758   70.0384   -8.5469 O   0  0  0  0  0  0  0  0  0  0  0  0
   18.2075   70.4604   -8.4129 C   0  0  2  0  0  0  0  0  0  0  0  0
   17.1618   71.4131   -7.8328 C   0  0  2  0  0  0  0  0  0  0  0  0
   19.6116   71.0453   -8.2452 C   0  0  1  0  0  0  0  0  0  0  0  0
   17.5185   71.8096   -6.3995 C   0  0  1  0  0  0  0  0  0  0  0  0
   19.8454   71.5324   -6.8181 C   0  0  1  0  0  0  0  0  0  0  0  0
   17.0813   69.9102   -9.9400 H   0  0  0  0  0  0  0  0  0  0  0  0
   15.6429   70.5503   -8.7452 H   0  0  0  0  0  0  0  0  0  0  0  0
   20.4379   69.7197   -9.4526 H   0  0  0  0  0  0  0  0  0  0  0  0
   20.7663   73.6132   -6.2491 O   0  0  0  0  0  0  0  0  0  0  0  0
   22.1908   72.0364   -7.0759 O   0  0  0  0  0  0  0  0  0  0  0  0
   21.0687   72.3870   -6.7429 C   0  0  0  0  0  0  0  0  0  0  0  0
  1  4  1  0
  1 24  1  0
  1  2  1  1
  1  3  2  0
 25 28  1  0
 25 24  1  0
 25 26  1  6
 25 27  2  0
  6 11  1  0
  6 12  1  0
 29 36  1  0
 29 37  1  0
  9  7  1  1
  7 13  1  0
 10  8  1  1
  8 14  1  0
  4  5  1  0
 36 28  1  1
 33 30  1  6
 30 38  1  0
 34 31  1  1
 31 39  1  0
 35 32  1  1
 32 40  1  0
 41 43  1  0
 15 19  2  0
 42 43  2  0
 16 22  2  0
 12 17  1  1
 17 19  1  0
 17 20  1  0
 18 19  1  0
 18 22  1  0
 18 23  1  0
  9 10  1  0
  9 11  1  0
 10 12  1  0
 11  5  1  1
 33 34  1  0
 33 35  1  0
 34 36  1  0
 35 37  1  0
 37 43  1  6
 20 21  2  0
 21 22  1  0
M  CHG  3   2  -1  26  -1  41  -1
M  END
>  <COMPND>  (127) 
    udp_gluA.pdb 

>  <AUTHOR>  (127) 
    GENERATED BY OPEN BABEL 3.1.1

>  <MASTER>  (127) 
        0    0    0    0    0    0    0    0   56    0   56    0

>  <minimizedAffinity>  (127) 
-8.30487

>  <CNNscore>  (127) 
0.4778136909

>  <CNNaffinity>  (127) 
4.2780094147

>  <CNN_VS>  (127) 
2.0440914631

>  <CNNaffinity_variance>  (127) 
0.2803696990

$$$$
128
     RDKit          3D

 43 45  0  0  0  0  0  0  0  0999 V2000
   18.9524   71.6761   -2.3320 P   0  0  2  0  0  0  0  0  0  0  0  0
   17.7454   72.3016   -3.2100 O   0  0  0  0  0  0  0  0  0  0  0  0
   18.7762   70.2362   -1.9478 O   0  0  0  0  0  0  0  0  0  0  0  0
   19.1184   72.7158   -1.1035 O   0  0  0  0  0  0  0  0  0  0  0  0
   18.6213   74.0322   -1.2599 C   0  0  0  0  0  0  0  0  0  0  0  0
   20.0096   74.0893    0.7014 O   0  0  0  0  0  0  0  0  0  0  0  0
   20.2283   77.0431    0.2336 O   0  0  0  0  0  0  0  0  0  0  0  0
   22.5936   76.1074   -0.7493 O   0  0  0  0  0  0  0  0  0  0  0  0
   20.1657   75.9798   -0.7172 C   0  0  1  0  0  0  0  0  0  0  0  0
   21.4832   75.2348   -0.7580 C   0  0  2  0  0  0  0  0  0  0  0  0
   19.2170   74.9197   -0.1746 C   0  0  1  0  0  0  0  0  0  0  0  0
   21.4011   74.3801    0.4952 C   0  0  2  0  0  0  0  0  0  0  0  0
   20.8288   77.7327   -0.0912 H   0  0  0  0  0  0  0  0  0  0  0  0
   22.6014   76.6290   -1.5677 H   0  0  0  0  0  0  0  0  0  0  0  0
   21.8008   72.5368    2.5973 O   0  0  0  0  0  0  0  0  0  0  0  0
   24.1822   69.6754   -0.1203 O   0  0  0  0  0  0  0  0  0  0  0  0
   22.1218   73.1455    0.3646 N   0  0  0  0  0  0  0  0  0  0  0  0
   22.9874   71.1139    1.2420 N   0  0  0  0  0  0  0  0  0  0  0  0
   22.2654   72.2903    1.4827 C   0  0  0  0  0  0  0  0  0  0  0  0
   22.6756   72.7918   -0.8598 C   0  0  0  0  0  0  0  0  0  0  0  0
   23.3610   71.6670   -1.0739 C   0  0  0  0  0  0  0  0  0  0  0  0
   23.5573   70.7191    0.0425 C   0  0  0  0  0  0  0  0  0  0  0  0
   23.1023   70.5036    2.0060 H   0  0  0  0  0  0  0  0  0  0  0  0
   20.2552   71.9760   -3.2406 O   0  0  0  0  0  0  0  0  0  0  0  0
   20.4465   72.9095   -4.5466 P   0  0  2  0  0  0  0  0  0  0  0  0
   21.9601   72.5813   -5.0173 O   0  0  0  0  0  0  0  0  0  0  0  0
   20.1755   74.3666   -4.3071 O   0  0  0  0  0  0  0  0  0  0  0  0
   19.5133   72.2315   -5.6744 O   0  0  0  0  0  0  0  0  0  0  0  0
   18.9341   69.9448   -5.4633 O   0  0  0  0  0  0  0  0  0  0  0  0
   18.0135   70.6830   -9.4225 O   0  0  0  0  0  0  0  0  0  0  0  0
   20.4617   71.7585   -8.2460 O   0  0  0  0  0  0  0  0  0  0  0  0
   15.8921   70.4699   -7.4463 O   0  0  0  0  0  0  0  0  0  0  0  0
   18.1664   71.0004   -8.0391 C   0  0  2  0  0  0  0  0  0  0  0  0
   19.6230   70.7918   -7.6241 C   0  0  2  0  0  0  0  0  0  0  0  0
   17.2470   70.0762   -7.2375 C   0  0  1  0  0  0  0  0  0  0  0  0
   19.7802   70.8986   -6.1066 C   0  0  1  0  0  0  0  0  0  0  0  0
   17.5508   70.1471   -5.7437 C   0  0  1  0  0  0  0  0  0  0  0  0
   18.5885   71.2579   -9.9518 H   0  0  0  0  0  0  0  0  0  0  0  0
   20.3668   71.6966   -9.2091 H   0  0  0  0  0  0  0  0  0  0  0  0
   15.6859   70.4293   -8.3933 H   0  0  0  0  0  0  0  0  0  0  0  0
   15.5446   69.1690   -5.0227 O   0  0  0  0  0  0  0  0  0  0  0  0
   17.4800   68.0909   -4.4833 O   0  0  0  0  0  0  0  0  0  0  0  0
   16.8926   69.0214   -5.0145 C   0  0  0  0  0  0  0  0  0  0  0  0
  1  4  1  0
  1 24  1  0
  1  2  1  6
  1  3  2  0
 25 28  1  0
 25 24  1  0
 25 26  1  6
 25 27  2  0
  6 11  1  0
  6 12  1  0
 29 36  1  0
 29 37  1  0
  9  7  1  1
  7 13  1  0
 10  8  1  1
  8 14  1  0
  4  5  1  0
 36 28  1  1
 33 30  1  6
 30 38  1  0
 34 31  1  6
 31 39  1  0
 35 32  1  1
 32 40  1  0
 41 43  1  0
 15 19  2  0
 42 43  2  0
 16 22  2  0
 12 17  1  6
 17 19  1  0
 17 20  1  0
 18 19  1  0
 18 22  1  0
 18 23  1  0
  9 10  1  0
  9 11  1  0
 10 12  1  0
 11  5  1  6
 33 34  1  0
 33 35  1  0
 34 36  1  0
 35 37  1  0
 37 43  1  1
 20 21  2  0
 21 22  1  0
M  CHG  3   2  -1  26  -1  41  -1
M  END
>  <COMPND>  (128) 
    udp_gluA.pdb 

>  <AUTHOR>  (128) 
    GENERATED BY OPEN BABEL 3.1.1

>  <MASTER>  (128) 
        0    0    0    0    0    0    0    0   56    0   56    0

>  <minimizedAffinity>  (128) 
-7.22979

>  <CNNscore>  (128) 
0.4755713642

>  <CNNaffinity>  (128) 
4.3445892334

>  <CNN_VS>  (128) 
2.0661621094

>  <CNNaffinity_variance>  (128) 
0.0983870849

$$$$
129
     RDKit          3D

 43 45  0  0  0  0  0  0  0  0999 V2000
   22.7932   74.0398   -5.3414 P   0  0  2  0  0  0  0  0  0  0  0  0
   23.5442   75.2335   -6.1351 O   0  0  0  0  0  0  0  0  0  0  0  0
   23.7037   73.0676   -4.6503 O   0  0  0  0  0  0  0  0  0  0  0  0
   21.7966   73.4051   -6.4469 O   0  0  0  0  0  0  0  0  0  0  0  0
   21.2531   72.1197   -6.2085 C   0  0  0  0  0  0  0  0  0  0  0  0
   19.8210   70.4248   -7.1326 O   0  0  0  0  0  0  0  0  0  0  0  0
   19.1111   72.4364   -9.2400 O   0  0  0  0  0  0  0  0  0  0  0  0
   16.9705   72.5579   -7.5551 O   0  0  0  0  0  0  0  0  0  0  0  0
   19.3823   72.6383   -7.8528 C   0  0  1  0  0  0  0  0  0  0  0  0
   18.2142   72.1621   -7.0156 C   0  0  2  0  0  0  0  0  0  0  0  0
   20.4835   71.6697   -7.4436 C   0  0  1  0  0  0  0  0  0  0  0  0
   18.4066   70.6552   -7.0340 C   0  0  2  0  0  0  0  0  0  0  0  0
   18.4105   73.0445   -9.5246 H   0  0  0  0  0  0  0  0  0  0  0  0
   16.8962   73.5250   -7.5205 H   0  0  0  0  0  0  0  0  0  0  0  0
   15.7410   69.7950   -6.6723 O   0  0  0  0  0  0  0  0  0  0  0  0
   16.6238   68.2502   -2.4205 O   0  0  0  0  0  0  0  0  0  0  0  0
   17.9128   70.0251   -5.8424 N   0  0  0  0  0  0  0  0  0  0  0  0
   16.1830   69.0273   -4.5546 N   0  0  0  0  0  0  0  0  0  0  0  0
   16.5561   69.6312   -5.7626 C   0  0  0  0  0  0  0  0  0  0  0  0
   18.7683   69.8018   -4.7704 C   0  0  0  0  0  0  0  0  0  0  0  0
   18.3980   69.2250   -3.6254 C   0  0  0  0  0  0  0  0  0  0  0  0
   16.9973   68.7845   -3.4603 C   0  0  0  0  0  0  0  0  0  0  0  0
   15.2428   68.7463   -4.4747 H   0  0  0  0  0  0  0  0  0  0  0  0
   21.7863   74.8349   -4.3583 O   0  0  0  0  0  0  0  0  0  0  0  0
   21.9418   75.2764   -2.8108 P   0  0  2  0  0  0  0  0  0  0  0  0
   20.7903   76.3995   -2.6290 O   0  0  0  0  0  0  0  0  0  0  0  0
   23.3207   75.7384   -2.4379 O   0  0  0  0  0  0  0  0  0  0  0  0
   21.4101   74.0078   -1.9679 O   0  0  0  0  0  0  0  0  0  0  0  0
   22.5597   73.4626    0.0297 O   0  0  0  0  0  0  0  0  0  0  0  0
   20.3024   70.0596   -0.5969 O   0  0  0  0  0  0  0  0  0  0  0  0
   21.6504   71.3745   -2.8304 O   0  0  0  0  0  0  0  0  0  0  0  0
   19.5189   71.9749    1.4448 O   0  0  0  0  0  0  0  0  0  0  0  0
   20.5966   71.4557   -0.6465 C   0  0  2  0  0  0  0  0  0  0  0  0
   21.8722   71.6812   -1.4587 C   0  0  2  0  0  0  0  0  0  0  0  0
   20.7854   71.9505    0.7892 C   0  0  1  0  0  0  0  0  0  0  0  0
   22.3454   73.1309   -1.3428 C   0  0  1  0  0  0  0  0  0  0  0  0
   21.3780   73.3563    0.8206 C   0  0  1  0  0  0  0  0  0  0  0  0
   20.1784   69.7229   -1.4983 H   0  0  0  0  0  0  0  0  0  0  0  0
   21.3496   70.4562   -2.9113 H   0  0  0  0  0  0  0  0  0  0  0  0
   19.1308   71.0861    1.4317 H   0  0  0  0  0  0  0  0  0  0  0  0
   22.2038   75.0079    2.2670 O   0  0  0  0  0  0  0  0  0  0  0  0
   21.9370   72.9124    3.1253 O   0  0  0  0  0  0  0  0  0  0  0  0
   21.8609   73.6980    2.1926 C   0  0  0  0  0  0  0  0  0  0  0  0
  1  4  1  0
  1 24  1  0
  1  2  1  6
  1  3  2  0
 25 28  1  0
 25 24  1  0
 25 26  1  6
 25 27  2  0
  6 11  1  0
  6 12  1  0
 29 36  1  0
 29 37  1  0
  9  7  1  6
  7 13  1  0
 10  8  1  6
  8 14  1  0
  4  5  1  0
 36 28  1  1
 33 30  1  1
 30 38  1  0
 34 31  1  6
 31 39  1  0
 35 32  1  6
 32 40  1  0
 41 43  1  0
 15 19  2  0
 42 43  2  0
 16 22  2  0
 12 17  1  1
 17 19  1  0
 17 20  1  0
 18 19  1  0
 18 22  1  0
 18 23  1  0
  9 10  1  0
  9 11  1  0
 10 12  1  0
 11  5  1  1
 33 34  1  0
 33 35  1  0
 34 36  1  0
 35 37  1  0
 37 43  1  1
 20 21  2  0
 21 22  1  0
M  CHG  3   2  -1  26  -1  41  -1
M  END
>  <COMPND>  (129) 
    udp_gluA.pdb 

>  <AUTHOR>  (129) 
    GENERATED BY OPEN BABEL 3.1.1

>  <MASTER>  (129) 
        0    0    0    0    0    0    0    0   56    0   56    0

>  <minimizedAffinity>  (129) 
-7.38377

>  <CNNscore>  (129) 
0.3899921775

>  <CNNaffinity>  (129) 
4.1536359787

>  <CNN_VS>  (129) 
1.6198855639

>  <CNNaffinity_variance>  (129) 
0.3893948197

$$$$
130
     RDKit          3D

 43 45  0  0  0  0  0  0  0  0999 V2000
   22.1781   70.9870   -2.9867 P   0  0  2  0  0  0  0  0  0  0  0  0
   21.2494   69.6639   -3.0628 O   0  0  0  0  0  0  0  0  0  0  0  0
   23.6554   70.7239   -2.9675 O   0  0  0  0  0  0  0  0  0  0  0  0
   21.5927   71.8000   -1.7161 O   0  0  0  0  0  0  0  0  0  0  0  0
   22.4257   71.9780   -0.5852 C   0  0  0  0  0  0  0  0  0  0  0  0
   22.2822   72.6006    1.7320 O   0  0  0  0  0  0  0  0  0  0  0  0
   19.3351   72.1022    1.4911 O   0  0  0  0  0  0  0  0  0  0  0  0
   19.4947   74.8198    1.3331 O   0  0  0  0  0  0  0  0  0  0  0  0
   20.2406   72.6487    0.5319 C   0  0  1  0  0  0  0  0  0  0  0  0
   20.6122   74.0667    0.9104 C   0  0  2  0  0  0  0  0  0  0  0  0
   21.5709   71.9219    0.6743 C   0  0  1  0  0  0  0  0  0  0  0  0
   21.6209   73.8419    2.0238 C   0  0  2  0  0  0  0  0  0  0  0  0
   18.4778   72.5510    1.4193 H   0  0  0  0  0  0  0  0  0  0  0  0
   18.8827   74.9356    0.5888 H   0  0  0  0  0  0  0  0  0  0  0  0
   22.9063   74.6654    4.4000 O   0  0  0  0  0  0  0  0  0  0  0  0
   25.3666   77.8661    2.1760 O   0  0  0  0  0  0  0  0  0  0  0  0
   22.6015   74.8880    2.0944 N   0  0  0  0  0  0  0  0  0  0  0  0
   24.1297   76.2594    3.2902 N   0  0  0  0  0  0  0  0  0  0  0  0
   23.1867   75.2243    3.3380 C   0  0  0  0  0  0  0  0  0  0  0  0
   22.9753   75.5671    0.9411 C   0  0  0  0  0  0  0  0  0  0  0  0
   23.8758   76.5515    0.9113 C   0  0  0  0  0  0  0  0  0  0  0  0
   24.5337   76.9648    2.1682 C   0  0  0  0  0  0  0  0  0  0  0  0
   24.5492   76.5127    4.1441 H   0  0  0  0  0  0  0  0  0  0  0  0
   21.6664   71.8625   -4.2454 O   0  0  0  0  0  0  0  0  0  0  0  0
   20.2878   72.6724   -4.4846 P   0  0  2  0  0  0  0  0  0  0  0  0
   20.7878   74.1956   -4.7090 O   0  0  0  0  0  0  0  0  0  0  0  0
   19.2785   72.5085   -3.3853 O   0  0  0  0  0  0  0  0  0  0  0  0
   19.7783   72.1929   -5.9382 O   0  0  0  0  0  0  0  0  0  0  0  0
   18.9257   70.0035   -5.6408 O   0  0  0  0  0  0  0  0  0  0  0  0
   18.1469   70.6724   -9.6425 O   0  0  0  0  0  0  0  0  0  0  0  0
   20.6928   71.4975   -8.4712 O   0  0  0  0  0  0  0  0  0  0  0  0
   15.9924   70.8017   -7.6952 O   0  0  0  0  0  0  0  0  0  0  0  0
   18.3207   71.0295   -8.2713 C   0  0  2  0  0  0  0  0  0  0  0  0
   19.7367   70.6664   -7.8234 C   0  0  2  0  0  0  0  0  0  0  0  0
   17.2875   70.2580   -7.4471 C   0  0  1  0  0  0  0  0  0  0  0  0
   19.8879   70.8199   -6.3093 C   0  0  1  0  0  0  0  0  0  0  0  0
   17.5802   70.3574   -5.9528 C   0  0  1  0  0  0  0  0  0  0  0  0
   18.7931   71.1506  -10.1858 H   0  0  0  0  0  0  0  0  0  0  0  0
   20.6024   71.4053   -9.4323 H   0  0  0  0  0  0  0  0  0  0  0  0
   15.7938   70.7446   -8.6429 H   0  0  0  0  0  0  0  0  0  0  0  0
   17.5605   68.7175   -4.2759 O   0  0  0  0  0  0  0  0  0  0  0  0
   15.5931   69.1270   -5.3535 O   0  0  0  0  0  0  0  0  0  0  0  0
   16.7827   69.3517   -5.1880 C   0  0  0  0  0  0  0  0  0  0  0  0
  1  4  1  0
  1 24  1  0
  1  2  1  6
  1  3  2  0
 25 28  1  0
 25 24  1  0
 25 26  1  6
 25 27  2  0
  6 11  1  0
  6 12  1  0
 29 36  1  0
 29 37  1  0
  9  7  1  1
  7 13  1  0
 10  8  1  1
  8 14  1  0
  4  5  1  0
 36 28  1  6
 33 30  1  6
 30 38  1  0
 34 31  1  6
 31 39  1  0
 35 32  1  1
 32 40  1  0
 41 43  1  0
 15 19  2  0
 42 43  2  0
 16 22  2  0
 12 17  1  6
 17 19  1  0
 17 20  1  0
 18 19  1  0
 18 22  1  0
 18 23  1  0
  9 10  1  0
  9 11  1  0
 10 12  1  0
 11  5  1  6
 33 34  1  0
 33 35  1  0
 34 36  1  0
 35 37  1  0
 37 43  1  1
 20 21  2  0
 21 22  1  0
M  CHG  3   2  -1  26  -1  41  -1
M  END
>  <COMPND>  (130) 
    udp_gluA.pdb 

>  <AUTHOR>  (130) 
    GENERATED BY OPEN BABEL 3.1.1

>  <MASTER>  (130) 
        0    0    0    0    0    0    0    0   56    0   56    0

>  <minimizedAffinity>  (130) 
-7.68874

>  <CNNscore>  (130) 
0.3807522357

>  <CNNaffinity>  (130) 
4.1174211502

>  <CNN_VS>  (130) 
1.5677173138

>  <CNNaffinity_variance>  (130) 
0.0198241286

$$$$
131
     RDKit          3D

 43 45  0  0  0  0  0  0  0  0999 V2000
   21.7180   73.0043   -6.0569 P   0  0  2  0  0  0  0  0  0  0  0  0
   20.9632   74.3543   -6.5331 O   0  0  0  0  0  0  0  0  0  0  0  0
   23.1425   72.8807   -6.5121 O   0  0  0  0  0  0  0  0  0  0  0  0
   20.7245   71.8171   -6.5274 O   0  0  0  0  0  0  0  0  0  0  0  0
   20.2878   71.7948   -7.8740 C   0  0  0  0  0  0  0  0  0  0  0  0
   19.0124   70.0599   -6.8056 O   0  0  0  0  0  0  0  0  0  0  0  0
   17.7136   69.6285   -9.4737 O   0  0  0  0  0  0  0  0  0  0  0  0
   15.8408   71.0833   -8.1275 O   0  0  0  0  0  0  0  0  0  0  0  0
   18.1455   70.8457   -8.8652 C   0  0  1  0  0  0  0  0  0  0  0  0
   17.1940   71.2440   -7.7568 C   0  0  2  0  0  0  0  0  0  0  0  0
   19.4276   70.5574   -8.0962 C   0  0  1  0  0  0  0  0  0  0  0  0
   17.6080   70.3079   -6.6342 C   0  0  2  0  0  0  0  0  0  0  0  0
   16.8956   69.7876   -9.9709 H   0  0  0  0  0  0  0  0  0  0  0  0
   15.6264   71.7011   -8.8447 H   0  0  0  0  0  0  0  0  0  0  0  0
   16.1554   69.0527   -4.5628 O   0  0  0  0  0  0  0  0  0  0  0  0
   16.8346   72.5944   -1.6924 O   0  0  0  0  0  0  0  0  0  0  0  0
   17.3899   70.8795   -5.3356 N   0  0  0  0  0  0  0  0  0  0  0  0
   16.4942   70.8183   -3.1355 N   0  0  0  0  0  0  0  0  0  0  0  0
   16.6457   70.1662   -4.3663 C   0  0  0  0  0  0  0  0  0  0  0  0
   17.9113   72.1314   -5.0323 C   0  0  0  0  0  0  0  0  0  0  0  0
   17.7586   72.7401   -3.8546 C   0  0  0  0  0  0  0  0  0  0  0  0
   16.9934   72.0629   -2.7872 C   0  0  0  0  0  0  0  0  0  0  0  0
   15.9781   70.3421   -2.4454 H   0  0  0  0  0  0  0  0  0  0  0  0
   21.5233   73.0265   -4.4524 O   0  0  0  0  0  0  0  0  0  0  0  0
   21.7085   71.8637   -3.3445 P   0  0  2  0  0  0  0  0  0  0  0  0
   23.3126   71.6515   -3.2957 O   0  0  0  0  0  0  0  0  0  0  0  0
   20.9277   70.6132   -3.6278 O   0  0  0  0  0  0  0  0  0  0  0  0
   21.3489   72.5741   -1.9415 O   0  0  0  0  0  0  0  0  0  0  0  0
   22.6916   73.0871   -0.0591 O   0  0  0  0  0  0  0  0  0  0  0  0
   19.0671   72.1948    1.7116 O   0  0  0  0  0  0  0  0  0  0  0  0
   20.0782   70.5676   -0.4940 O   0  0  0  0  0  0  0  0  0  0  0  0
   19.9335   74.9595    1.4736 O   0  0  0  0  0  0  0  0  0  0  0  0
   19.9309   72.6828    0.6851 C   0  0  2  0  0  0  0  0  0  0  0  0
   20.8374   71.5519    0.1984 C   0  0  2  0  0  0  0  0  0  0  0  0
   20.7685   73.8206    1.2732 C   0  0  1  0  0  0  0  0  0  0  0  0
   21.9270   72.0861   -0.7322 C   0  0  1  0  0  0  0  0  0  0  0  0
   21.9107   74.2114    0.3399 C   0  0  1  0  0  0  0  0  0  0  0  0
   18.5249   71.4707    1.3609 H   0  0  0  0  0  0  0  0  0  0  0  0
   19.3847   70.2245    0.0905 H   0  0  0  0  0  0  0  0  0  0  0  0
   19.2022   74.7241    2.0658 H   0  0  0  0  0  0  0  0  0  0  0  0
   22.6628   75.0836    2.3832 O   0  0  0  0  0  0  0  0  0  0  0  0
   23.8108   75.6889    0.5084 O   0  0  0  0  0  0  0  0  0  0  0  0
   22.9032   75.0745    1.0487 C   0  0  0  0  0  0  0  0  0  0  0  0
  1  4  1  0
  1 24  1  0
  1  2  1  6
  1  3  2  0
 25 28  1  0
 25 24  1  0
 25 26  1  1
 25 27  2  0
  6 11  1  0
  6 12  1  0
 29 36  1  0
 29 37  1  0
  9  7  1  1
  7 13  1  0
 10  8  1  6
  8 14  1  0
  4  5  1  0
 36 28  1  6
 33 30  1  1
 30 38  1  0
 34 31  1  6
 31 39  1  0
 35 32  1  6
 32 40  1  0
 41 43  1  0
 15 19  2  0
 42 43  2  0
 16 22  2  0
 12 17  1  1
 17 19  1  0
 17 20  1  0
 18 19  1  0
 18 22  1  0
 18 23  1  0
  9 10  1  0
  9 11  1  0
 10 12  1  0
 11  5  1  1
 33 34  1  0
 33 35  1  0
 34 36  1  0
 35 37  1  0
 37 43  1  1
 20 21  2  0
 21 22  1  0
M  CHG  3   2  -1  26  -1  41  -1
M  END
>  <COMPND>  (131) 
    udp_gluA.pdb 

>  <AUTHOR>  (131) 
    GENERATED BY OPEN BABEL 3.1.1

>  <MASTER>  (131) 
        0    0    0    0    0    0    0    0   56    0   56    0

>  <minimizedAffinity>  (131) 
-7.51318

>  <CNNscore>  (131) 
0.3691549301

>  <CNNaffinity>  (131) 
4.0061855316

>  <CNN_VS>  (131) 
1.4789031744

>  <CNNaffinity_variance>  (131) 
0.3074233830

$$$$
132
     RDKit          3D

 43 45  0  0  0  0  0  0  0  0999 V2000
   20.1423   70.8681   -1.0971 P   0  0  2  0  0  0  0  0  0  0  0  0
   19.8886   69.2713   -1.0288 O   0  0  0  0  0  0  0  0  0  0  0  0
   18.8991   71.7084   -1.0805 O   0  0  0  0  0  0  0  0  0  0  0  0
   21.0993   71.0546   -2.3883 O   0  0  0  0  0  0  0  0  0  0  0  0
   20.8069   72.0960   -3.3018 C   0  0  0  0  0  0  0  0  0  0  0  0
   20.2508   70.4444   -4.9572 O   0  0  0  0  0  0  0  0  0  0  0  0
   21.4531   72.3204   -6.9638 O   0  0  0  0  0  0  0  0  0  0  0  0
   18.7781   72.7468   -7.2775 O   0  0  0  0  0  0  0  0  0  0  0  0
   20.6968   72.6167   -5.7896 C   0  0  1  0  0  0  0  0  0  0  0  0
   19.2329   72.3034   -6.0162 C   0  0  2  0  0  0  0  0  0  0  0  0
   21.0771   71.6042   -4.7179 C   0  0  1  0  0  0  0  0  0  0  0  0
   19.2103   70.7901   -5.8853 C   0  0  2  0  0  0  0  0  0  0  0  0
   21.2271   72.9543   -7.6629 H   0  0  0  0  0  0  0  0  0  0  0  0
   18.8114   73.7162   -7.3108 H   0  0  0  0  0  0  0  0  0  0  0  0
   16.9888   70.1431   -7.5048 O   0  0  0  0  0  0  0  0  0  0  0  0
   14.4511   68.9263   -3.8547 O   0  0  0  0  0  0  0  0  0  0  0  0
   17.9567   70.3020   -5.3843 N   0  0  0  0  0  0  0  0  0  0  0  0
   15.7267   69.5387   -5.6852 N   0  0  0  0  0  0  0  0  0  0  0  0
   16.9041   70.0071   -6.2828 C   0  0  0  0  0  0  0  0  0  0  0  0
   17.7798   70.1186   -4.0183 C   0  0  0  0  0  0  0  0  0  0  0  0
   16.6516   69.6712   -3.4635 C   0  0  0  0  0  0  0  0  0  0  0  0
   15.5030   69.3406   -4.3323 C   0  0  0  0  0  0  0  0  0  0  0  0
   14.9791   69.3285   -6.2904 H   0  0  0  0  0  0  0  0  0  0  0  0
   21.1480   71.1291    0.1412 O   0  0  0  0  0  0  0  0  0  0  0  0
   21.8575   72.4840    0.6650 P   0  0  2  0  0  0  0  0  0  0  0  0
   22.9862   72.7690   -0.4598 O   0  0  0  0  0  0  0  0  0  0  0  0
   22.3889   72.3988    2.0665 O   0  0  0  0  0  0  0  0  0  0  0  0
   20.7542   73.6385    0.4363 O   0  0  0  0  0  0  0  0  0  0  0  0
   20.3017   75.7182    1.4752 O   0  0  0  0  0  0  0  0  0  0  0  0
   16.4921   74.2723    0.7939 O   0  0  0  0  0  0  0  0  0  0  0  0
   18.5970   72.4975    1.7706 O   0  0  0  0  0  0  0  0  0  0  0  0
   17.5774   76.3767   -0.8926 O   0  0  0  0  0  0  0  0  0  0  0  0
   17.8829   74.4560    0.5295 C   0  0  2  0  0  0  0  0  0  0  0  0
   18.7025   73.9148    1.7012 C   0  0  2  0  0  0  0  0  0  0  0  0
   18.1363   75.9545    0.3499 C   0  0  1  0  0  0  0  0  0  0  0  0
   20.1763   74.2982    1.5613 C   0  0  1  0  0  0  0  0  0  0  0  0
   19.6291   76.2705    0.3457 C   0  0  1  0  0  0  0  0  0  0  0  0
   16.3072   73.3272    0.9117 H   0  0  0  0  0  0  0  0  0  0  0  0
   17.6644   72.2470    1.8592 H   0  0  0  0  0  0  0  0  0  0  0  0
   16.6274   76.1811   -0.9030 H   0  0  0  0  0  0  0  0  0  0  0  0
   19.4255   78.4106   -0.5924 O   0  0  0  0  0  0  0  0  0  0  0  0
   20.3701   78.2681    1.4780 O   0  0  0  0  0  0  0  0  0  0  0  0
   19.8611   77.7382    0.5017 C   0  0  0  0  0  0  0  0  0  0  0  0
  1  4  1  0
  1 24  1  0
  1  2  1  1
  1  3  2  0
 25 28  1  0
 25 24  1  0
 25 26  1  6
 25 27  2  0
  6 11  1  0
  6 12  1  0
 29 36  1  0
 29 37  1  0
  9  7  1  6
  7 13  1  0
 10  8  1  6
  8 14  1  0
  4  5  1  0
 36 28  1  6
 33 30  1  1
 30 38  1  0
 34 31  1  6
 31 39  1  0
 35 32  1  6
 32 40  1  0
 41 43  1  0
 15 19  2  0
 42 43  2  0
 16 22  2  0
 12 17  1  1
 17 19  1  0
 17 20  1  0
 18 19  1  0
 18 22  1  0
 18 23  1  0
  9 10  1  0
  9 11  1  0
 10 12  1  0
 11  5  1  1
 33 34  1  0
 33 35  1  0
 34 36  1  0
 35 37  1  0
 37 43  1  1
 20 21  2  0
 21 22  1  0
M  CHG  3   2  -1  26  -1  41  -1
M  END
>  <COMPND>  (132) 
    udp_gluA.pdb 

>  <AUTHOR>  (132) 
    GENERATED BY OPEN BABEL 3.1.1

>  <MASTER>  (132) 
        0    0    0    0    0    0    0    0   56    0   56    0

>  <minimizedAffinity>  (132) 
-6.84685

>  <CNNscore>  (132) 
0.3628295362

>  <CNNaffinity>  (132) 
4.2035479546

>  <CNN_VS>  (132) 
1.5251713991

>  <CNNaffinity_variance>  (132) 
0.1037424207

$$$$
133
     RDKit          3D

 43 45  0  0  0  0  0  0  0  0999 V2000
   17.9801   75.1729   -4.8660 P   0  0  2  0  0  0  0  0  0  0  0  0
   16.4059   75.5346   -4.7659 O   0  0  0  0  0  0  0  0  0  0  0  0
   18.9018   76.1754   -4.2357 O   0  0  0  0  0  0  0  0  0  0  0  0
   18.2156   74.8958   -6.4426 O   0  0  0  0  0  0  0  0  0  0  0  0
   17.6843   73.7113   -7.0076 C   0  0  0  0  0  0  0  0  0  0  0  0
   19.2795   71.9766   -6.5347 O   0  0  0  0  0  0  0  0  0  0  0  0
   19.5718   71.6922   -9.5054 O   0  0  0  0  0  0  0  0  0  0  0  0
   17.9330   69.6086   -8.8657 O   0  0  0  0  0  0  0  0  0  0  0  0
   18.4062   71.9901   -8.7365 C   0  0  1  0  0  0  0  0  0  0  0  0
   17.9131   70.7459   -8.0286 C   0  0  2  0  0  0  0  0  0  0  0  0
   18.8261   72.8747   -7.5705 C   0  0  1  0  0  0  0  0  0  0  0  0
   18.8881   70.6355   -6.8689 C   0  0  2  0  0  0  0  0  0  0  0  0
   19.3286   71.1278  -10.2563 H   0  0  0  0  0  0  0  0  0  0  0  0
   17.2956   69.7276   -9.5879 H   0  0  0  0  0  0  0  0  0  0  0  0
   20.3412   69.7647   -4.6090 O   0  0  0  0  0  0  0  0  0  0  0  0
   16.5214   68.2862   -2.4954 O   0  0  0  0  0  0  0  0  0  0  0  0
   18.2985   70.0197   -5.7139 N   0  0  0  0  0  0  0  0  0  0  0  0
   18.4375   69.0282   -3.5589 N   0  0  0  0  0  0  0  0  0  0  0  0
   19.1177   69.6185   -4.6322 C   0  0  0  0  0  0  0  0  0  0  0  0
   16.9243   69.8203   -5.6597 C   0  0  0  0  0  0  0  0  0  0  0  0
   16.2903   69.2564   -4.6298 C   0  0  0  0  0  0  0  0  0  0  0  0
   17.0732   68.8081   -3.4595 C   0  0  0  0  0  0  0  0  0  0  0  0
   18.9869   68.7388   -2.7949 H   0  0  0  0  0  0  0  0  0  0  0  0
   18.0538   73.6922   -4.2218 O   0  0  0  0  0  0  0  0  0  0  0  0
   18.3819   73.2051   -2.7155 P   0  0  2  0  0  0  0  0  0  0  0  0
   17.4445   71.8975   -2.5372 O   0  0  0  0  0  0  0  0  0  0  0  0
   18.1761   74.2610   -1.6683 O   0  0  0  0  0  0  0  0  0  0  0  0
   19.8840   72.6218   -2.7921 O   0  0  0  0  0  0  0  0  0  0  0  0
   21.6275   72.8255   -1.2021 O   0  0  0  0  0  0  0  0  0  0  0  0
   23.7423   72.5932   -4.7435 O   0  0  0  0  0  0  0  0  0  0  0  0
   21.3151   74.2099   -4.5714 O   0  0  0  0  0  0  0  0  0  0  0  0
   23.6142   70.2957   -2.9671 O   0  0  0  0  0  0  0  0  0  0  0  0
   22.6608   72.3239   -3.8515 C   0  0  2  0  0  0  0  0  0  0  0  0
   21.9855   73.6370   -3.4547 C   0  0  2  0  0  0  0  0  0  0  0  0
   23.2303   71.6236   -2.6157 C   0  0  1  0  0  0  0  0  0  0  0  0
   20.9756   73.4142   -2.3281 C   0  0  1  0  0  0  0  0  0  0  0  0
   22.2006   71.5524   -1.4917 C   0  0  1  0  0  0  0  0  0  0  0  0
   23.4044   73.0383   -5.5366 H   0  0  0  0  0  0  0  0  0  0  0  0
   21.9500   74.3537   -5.2902 H   0  0  0  0  0  0  0  0  0  0  0  0
   24.2693   70.3269   -3.6818 H   0  0  0  0  0  0  0  0  0  0  0  0
   22.4356   71.9912    0.8004 O   0  0  0  0  0  0  0  0  0  0  0  0
   23.6448   70.2582   -0.0562 O   0  0  0  0  0  0  0  0  0  0  0  0
   22.8503   71.1753   -0.2002 C   0  0  0  0  0  0  0  0  0  0  0  0
  1  4  1  0
  1 24  1  0
  1  2  1  6
  1  3  2  0
 25 28  1  0
 25 24  1  0
 25 26  1  1
 25 27  2  0
  6 11  1  0
  6 12  1  0
 29 36  1  0
 29 37  1  0
  9  7  1  6
  7 13  1  0
 10  8  1  6
  8 14  1  0
  4  5  1  0
 36 28  1  6
 33 30  1  6
 30 38  1  0
 34 31  1  6
 31 39  1  0
 35 32  1  6
 32 40  1  0
 41 43  1  0
 15 19  2  0
 42 43  2  0
 16 22  2  0
 12 17  1  1
 17 19  1  0
 17 20  1  0
 18 19  1  0
 18 22  1  0
 18 23  1  0
  9 10  1  0
  9 11  1  0
 10 12  1  0
 11  5  1  1
 33 34  1  0
 33 35  1  0
 34 36  1  0
 35 37  1  0
 37 43  1  1
 20 21  2  0
 21 22  1  0
M  CHG  3   2  -1  26  -1  41  -1
M  END
>  <COMPND>  (133) 
    udp_gluA.pdb 

>  <AUTHOR>  (133) 
    GENERATED BY OPEN BABEL 3.1.1

>  <MASTER>  (133) 
        0    0    0    0    0    0    0    0   56    0   56    0

>  <minimizedAffinity>  (133) 
-7.26062

>  <CNNscore>  (133) 
0.3620963693

>  <CNNaffinity>  (133) 
4.0853166580

>  <CNN_VS>  (133) 
1.4792783260

>  <CNNaffinity_variance>  (133) 
0.6066954732

$$$$
134
     RDKit          3D

 43 45  0  0  0  0  0  0  0  0999 V2000
   21.1897   75.2214   -6.0383 P   0  0  2  0  0  0  0  0  0  0  0  0
   20.5320   76.1952   -4.9256 O   0  0  0  0  0  0  0  0  0  0  0  0
   22.4383   75.7482   -6.6828 O   0  0  0  0  0  0  0  0  0  0  0  0
   19.9639   74.8961   -7.0431 O   0  0  0  0  0  0  0  0  0  0  0  0
   19.0768   73.8444   -6.7091 C   0  0  0  0  0  0  0  0  0  0  0  0
   19.2852   71.5117   -7.2501 O   0  0  0  0  0  0  0  0  0  0  0  0
   18.0131   72.1983   -9.8773 O   0  0  0  0  0  0  0  0  0  0  0  0
   15.9361   71.1282   -8.4711 O   0  0  0  0  0  0  0  0  0  0  0  0
   17.7558   72.7373   -8.5804 C   0  0  1  0  0  0  0  0  0  0  0  0
   16.9794   71.7424   -7.7439 C   0  0  2  0  0  0  0  0  0  0  0  0
   19.0802   72.8167   -7.8335 C   0  0  1  0  0  0  0  0  0  0  0  0
   18.0639   70.7603   -7.3347 C   0  0  2  0  0  0  0  0  0  0  0  0
   17.1814   72.1379  -10.3735 H   0  0  0  0  0  0  0  0  0  0  0  0
   15.2713   71.7945   -8.7080 H   0  0  0  0  0  0  0  0  0  0  0  0
   20.0230   70.2932   -5.3548 O   0  0  0  0  0  0  0  0  0  0  0  0
   16.9394   68.4216   -2.4856 O   0  0  0  0  0  0  0  0  0  0  0  0
   17.8004   70.1525   -6.0610 N   0  0  0  0  0  0  0  0  0  0  0  0
   18.4855   69.3606   -3.9280 N   0  0  0  0  0  0  0  0  0  0  0  0
   18.8557   69.9630   -5.1376 C   0  0  0  0  0  0  0  0  0  0  0  0
   16.5096   69.7531   -5.7369 C   0  0  0  0  0  0  0  0  0  0  0  0
   16.1722   69.1803   -4.5798 C   0  0  0  0  0  0  0  0  0  0  0  0
   17.2158   68.9457   -3.5604 C   0  0  0  0  0  0  0  0  0  0  0  0
   19.2036   69.2164   -3.2700 H   0  0  0  0  0  0  0  0  0  0  0  0
   21.3810   73.8311   -5.2363 O   0  0  0  0  0  0  0  0  0  0  0  0
   22.5370   73.3445   -4.2163 P   0  0  2  0  0  0  0  0  0  0  0  0
   22.7904   74.6506   -3.2942 O   0  0  0  0  0  0  0  0  0  0  0  0
   23.7696   72.8146   -4.8901 O   0  0  0  0  0  0  0  0  0  0  0  0
   21.8035   72.2918   -3.2385 O   0  0  0  0  0  0  0  0  0  0  0  0
   22.8688   72.2274   -1.1242 O   0  0  0  0  0  0  0  0  0  0  0  0
   20.0331   69.2492   -0.7278 O   0  0  0  0  0  0  0  0  0  0  0  0
   21.5584   69.5214   -3.2044 O   0  0  0  0  0  0  0  0  0  0  0  0
   19.6344   71.8245    0.5605 O   0  0  0  0  0  0  0  0  0  0  0  0
   20.5700   70.4818   -1.2078 C   0  0  2  0  0  0  0  0  0  0  0  0
   21.8525   70.2096   -1.9942 C   0  0  2  0  0  0  0  0  0  0  0  0
   20.8660   71.3715    0.0017 C   0  0  1  0  0  0  0  0  0  0  0  0
   22.5777   71.5144   -2.3268 C   0  0  1  0  0  0  0  0  0  0  0  0
   21.6995   72.5875   -0.3919 C   0  0  1  0  0  0  0  0  0  0  0  0
   19.8372   68.6674   -1.4791 H   0  0  0  0  0  0  0  0  0  0  0  0
   21.0980   68.6926   -3.0009 H   0  0  0  0  0  0  0  0  0  0  0  0
   19.0943   71.0601    0.8152 H   0  0  0  0  0  0  0  0  0  0  0  0
   22.2154   72.4342    1.8910 O   0  0  0  0  0  0  0  0  0  0  0  0
   22.6936   74.4039    0.8467 O   0  0  0  0  0  0  0  0  0  0  0  0
   22.2567   73.2631    0.8186 C   0  0  0  0  0  0  0  0  0  0  0  0
  1  4  1  0
  1 24  1  0
  1  2  1  1
  1  3  2  0
 25 28  1  0
 25 24  1  0
 25 26  1  1
 25 27  2  0
  6 11  1  0
  6 12  1  0
 29 36  1  0
 29 37  1  0
  9  7  1  6
  7 13  1  0
 10  8  1  6
  8 14  1  0
  4  5  1  0
 36 28  1  6
 33 30  1  1
 30 38  1  0
 34 31  1  6
 31 39  1  0
 35 32  1  6
 32 40  1  0
 41 43  1  0
 15 19  2  0
 42 43  2  0
 16 22  2  0
 12 17  1  1
 17 19  1  0
 17 20  1  0
 18 19  1  0
 18 22  1  0
 18 23  1  0
  9 10  1  0
  9 11  1  0
 10 12  1  0
 11  5  1  1
 33 34  1  0
 33 35  1  0
 34 36  1  0
 35 37  1  0
 37 43  1  1
 20 21  2  0
 21 22  1  0
M  CHG  3   2  -1  26  -1  41  -1
M  END
>  <COMPND>  (134) 
    udp_gluA.pdb 

>  <AUTHOR>  (134) 
    GENERATED BY OPEN BABEL 3.1.1

>  <MASTER>  (134) 
        0    0    0    0    0    0    0    0   56    0   56    0

>  <minimizedAffinity>  (134) 
-8.51690

>  <CNNscore>  (134) 
0.3575473130

>  <CNNaffinity>  (134) 
4.1501832008

>  <CNN_VS>  (134) 
1.4838868380

>  <CNNaffinity_variance>  (134) 
0.5662706494

$$$$
135
     RDKit          3D

 43 45  0  0  0  0  0  0  0  0999 V2000
   19.4429   74.7463   -4.3570 P   0  0  2  0  0  0  0  0  0  0  0  0
   19.0397   76.0964   -3.5610 O   0  0  0  0  0  0  0  0  0  0  0  0
   20.9028   74.4012   -4.3201 O   0  0  0  0  0  0  0  0  0  0  0  0
   18.8084   74.9595   -5.8300 O   0  0  0  0  0  0  0  0  0  0  0  0
   18.0864   73.8919   -6.4162 C   0  0  0  0  0  0  0  0  0  0  0  0
   19.4427   71.9143   -6.2514 O   0  0  0  0  0  0  0  0  0  0  0  0
   19.5089   71.9353   -9.2492 O   0  0  0  0  0  0  0  0  0  0  0  0
   17.6308   70.0337   -8.7080 O   0  0  0  0  0  0  0  0  0  0  0  0
   18.4473   72.2984   -8.3662 C   0  0  1  0  0  0  0  0  0  0  0  0
   17.8253   71.0597   -7.7572 C   0  0  2  0  0  0  0  0  0  0  0  0
   19.0600   72.9784   -7.1495 C   0  0  1  0  0  0  0  0  0  0  0  0
   18.8435   70.6859   -6.6935 C   0  0  2  0  0  0  0  0  0  0  0  0
   19.1419   71.4989  -10.0344 H   0  0  0  0  0  0  0  0  0  0  0  0
   16.9741   70.3200   -9.3628 H   0  0  0  0  0  0  0  0  0  0  0  0
   20.2936   69.5211   -4.5682 O   0  0  0  0  0  0  0  0  0  0  0  0
   16.4366   68.1859   -2.4269 O   0  0  0  0  0  0  0  0  0  0  0  0
   18.2435   70.0274   -5.5678 N   0  0  0  0  0  0  0  0  0  0  0  0
   18.3712   68.8563   -3.5042 N   0  0  0  0  0  0  0  0  0  0  0  0
   19.0620   69.4755   -4.5542 C   0  0  0  0  0  0  0  0  0  0  0  0
   16.8601   69.9347   -5.4749 C   0  0  0  0  0  0  0  0  0  0  0  0
   16.2160   69.3415   -4.4679 C   0  0  0  0  0  0  0  0  0  0  0  0
   16.9975   68.7386   -3.3683 C   0  0  0  0  0  0  0  0  0  0  0  0
   18.9199   68.4629   -2.7876 H   0  0  0  0  0  0  0  0  0  0  0  0
   18.4712   73.6340   -3.7002 O   0  0  0  0  0  0  0  0  0  0  0  0
   18.1455   73.2885   -2.1548 P   0  0  2  0  0  0  0  0  0  0  0  0
   17.4992   71.8066   -2.2354 O   0  0  0  0  0  0  0  0  0  0  0  0
   17.2804   74.3039   -1.4660 O   0  0  0  0  0  0  0  0  0  0  0  0
   19.5901   73.0662   -1.4719 O   0  0  0  0  0  0  0  0  0  0  0  0
   21.1640   71.4371   -2.1633 O   0  0  0  0  0  0  0  0  0  0  0  0
   22.2732   72.0629    1.7668 O   0  0  0  0  0  0  0  0  0  0  0  0
   19.4509   71.8734    1.0369 O   0  0  0  0  0  0  0  0  0  0  0  0
   23.8534   73.1970   -0.3937 O   0  0  0  0  0  0  0  0  0  0  0  0
   21.7498   72.4205    0.4877 C   0  0  2  0  0  0  0  0  0  0  0  0
   20.5330   71.5506    0.1712 C   0  0  2  0  0  0  0  0  0  0  0  0
   22.8494   72.1965   -0.5527 C   0  0  1  0  0  0  0  0  0  0  0  0
   20.0855   71.7426   -1.2785 C   0  0  1  0  0  0  0  0  0  0  0  0
   22.2979   72.2804   -1.9731 C   0  0  1  0  0  0  0  0  0  0  0  0
   21.5918   72.1970    2.4443 H   0  0  0  0  0  0  0  0  0  0  0  0
   19.7279   71.7541    1.9585 H   0  0  0  0  0  0  0  0  0  0  0  0
   24.2126   73.1545    0.5064 H   0  0  0  0  0  0  0  0  0  0  0  0
   24.0320   70.7594   -2.3985 O   0  0  0  0  0  0  0  0  0  0  0  0
   23.4064   72.1290   -4.1108 O   0  0  0  0  0  0  0  0  0  0  0  0
   23.2846   71.7430   -2.9579 C   0  0  0  0  0  0  0  0  0  0  0  0
  1  4  1  0
  1 24  1  0
  1  2  1  1
  1  3  2  0
 25 28  1  0
 25 24  1  0
 25 26  1  6
 25 27  2  0
  6 11  1  0
  6 12  1  0
 29 36  1  0
 29 37  1  0
  9  7  1  6
  7 13  1  0
 10  8  1  6
  8 14  1  0
  4  5  1  0
 36 28  1  1
 33 30  1  1
 30 38  1  0
 34 31  1  1
 31 39  1  0
 35 32  1  6
 32 40  1  0
 41 43  1  0
 15 19  2  0
 42 43  2  0
 16 22  2  0
 12 17  1  1
 17 19  1  0
 17 20  1  0
 18 19  1  0
 18 22  1  0
 18 23  1  0
  9 10  1  0
  9 11  1  0
 10 12  1  0
 11  5  1  1
 33 34  1  0
 33 35  1  0
 34 36  1  0
 35 37  1  0
 37 43  1  6
 20 21  2  0
 21 22  1  0
M  CHG  3   2  -1  26  -1  41  -1
M  END
>  <COMPND>  (135) 
    udp_gluA.pdb 

>  <AUTHOR>  (135) 
    GENERATED BY OPEN BABEL 3.1.1

>  <MASTER>  (135) 
        0    0    0    0    0    0    0    0   56    0   56    0

>  <minimizedAffinity>  (135) 
-6.80990

>  <CNNscore>  (135) 
0.3524562120

>  <CNNaffinity>  (135) 
4.0466771126

>  <CNN_VS>  (135) 
1.4262764454

>  <CNNaffinity_variance>  (135) 
0.5895518064

$$$$
136
     RDKit          3D

 43 45  0  0  0  0  0  0  0  0999 V2000
   19.8546   74.3267   -2.7264 P   0  0  2  0  0  0  0  0  0  0  0  0
   20.7879   75.1691   -3.7453 O   0  0  0  0  0  0  0  0  0  0  0  0
   18.3890   74.6392   -2.8043 O   0  0  0  0  0  0  0  0  0  0  0  0
   20.5469   74.5595   -1.2827 O   0  0  0  0  0  0  0  0  0  0  0  0
   19.8274   75.2749   -0.2953 C   0  0  0  0  0  0  0  0  0  0  0  0
   19.5204   72.9583    0.2675 O   0  0  0  0  0  0  0  0  0  0  0  0
   19.3419   73.8671    3.1194 O   0  0  0  0  0  0  0  0  0  0  0  0
   21.8958   72.9258    2.9527 O   0  0  0  0  0  0  0  0  0  0  0  0
   20.1558   74.3705    2.0598 C   0  0  1  0  0  0  0  0  0  0  0  0
   21.2930   73.4133    1.7722 C   0  0  2  0  0  0  0  0  0  0  0  0
   19.3466   74.3002    0.7720 C   0  0  1  0  0  0  0  0  0  0  0  0
   20.5940   72.3224    0.9790 C   0  0  2  0  0  0  0  0  0  0  0  0
   19.8377   73.9020    3.9529 H   0  0  0  0  0  0  0  0  0  0  0  0
   22.3273   73.6579    3.4215 H   0  0  0  0  0  0  0  0  0  0  0  0
   19.9392   69.9973   -0.4844 O   0  0  0  0  0  0  0  0  0  0  0  0
   24.0248   69.9686   -2.6178 O   0  0  0  0  0  0  0  0  0  0  0  0
   21.4679   71.6862    0.0344 N   0  0  0  0  0  0  0  0  0  0  0  0
   21.9751   69.9846   -1.5448 N   0  0  0  0  0  0  0  0  0  0  0  0
   21.0424   70.5218   -0.6478 C   0  0  0  0  0  0  0  0  0  0  0  0
   22.7292   72.2159   -0.2095 C   0  0  0  0  0  0  0  0  0  0  0  0
   23.6072   71.6927   -1.0676 C   0  0  0  0  0  0  0  0  0  0  0  0
   23.2412   70.4751   -1.8205 C   0  0  0  0  0  0  0  0  0  0  0  0
   21.7022   69.1726   -2.0301 H   0  0  0  0  0  0  0  0  0  0  0  0
   20.2353   72.7935   -3.0690 O   0  0  0  0  0  0  0  0  0  0  0  0
   20.5992   72.0784   -4.4725 P   0  0  2  0  0  0  0  0  0  0  0  0
   20.3802   70.5064   -4.1544 O   0  0  0  0  0  0  0  0  0  0  0  0
   21.9626   72.4182   -5.0014 O   0  0  0  0  0  0  0  0  0  0  0  0
   19.3827   72.4678   -5.4578 O   0  0  0  0  0  0  0  0  0  0  0  0
   19.6150   72.1283   -7.7902 O   0  0  0  0  0  0  0  0  0  0  0  0
   16.4023   74.7211   -7.6338 O   0  0  0  0  0  0  0  0  0  0  0  0
   18.7224   75.1321   -5.9067 O   0  0  0  0  0  0  0  0  0  0  0  0
   15.9739   71.8982   -8.1803 O   0  0  0  0  0  0  0  0  0  0  0  0
   17.2546   73.6728   -7.1726 C   0  0  2  0  0  0  0  0  0  0  0  0
   18.6741   74.2104   -6.9898 C   0  0  2  0  0  0  0  0  0  0  0  0
   17.2390   72.5559   -8.2186 C   0  0  1  0  0  0  0  0  0  0  0  0
   19.6595   73.0725   -6.7197 C   0  0  1  0  0  0  0  0  0  0  0  0
   18.3325   71.5260   -7.9500 C   0  0  1  0  0  0  0  0  0  0  0  0
   16.3964   75.4424   -6.9850 H   0  0  0  0  0  0  0  0  0  0  0  0
   18.0993   75.8567   -6.0713 H   0  0  0  0  0  0  0  0  0  0  0  0
   15.2692   72.5428   -8.3496 H   0  0  0  0  0  0  0  0  0  0  0  0
   17.7646   69.5188   -9.0225 O   0  0  0  0  0  0  0  0  0  0  0  0
   19.2624   70.8750  -10.0791 O   0  0  0  0  0  0  0  0  0  0  0  0
   18.5252   70.6359   -9.1345 C   0  0  0  0  0  0  0  0  0  0  0  0
  1  4  1  0
  1 24  1  0
  1  2  1  6
  1  3  2  0
 25 28  1  0
 25 24  1  0
 25 26  1  1
 25 27  2  0
  6 11  1  0
  6 12  1  0
 29 36  1  0
 29 37  1  0
  9  7  1  1
  7 13  1  0
 10  8  1  1
  8 14  1  0
  4  5  1  0
 36 28  1  1
 33 30  1  6
 30 38  1  0
 34 31  1  1
 31 39  1  0
 35 32  1  1
 32 40  1  0
 41 43  1  0
 15 19  2  0
 42 43  2  0
 16 22  2  0
 12 17  1  6
 17 19  1  0
 17 20  1  0
 18 19  1  0
 18 22  1  0
 18 23  1  0
  9 10  1  0
  9 11  1  0
 10 12  1  0
 11  5  1  6
 33 34  1  0
 33 35  1  0
 34 36  1  0
 35 37  1  0
 37 43  1  6
 20 21  2  0
 21 22  1  0
M  CHG  3   2  -1  26  -1  41  -1
M  END
>  <COMPND>  (136) 
    udp_gluA.pdb 

>  <AUTHOR>  (136) 
    GENERATED BY OPEN BABEL 3.1.1

>  <MASTER>  (136) 
        0    0    0    0    0    0    0    0   56    0   56    0

>  <minimizedAffinity>  (136) 
-7.39991

>  <CNNscore>  (136) 
0.3292540908

>  <CNNaffinity>  (136) 
3.9052379131

>  <CNN_VS>  (136) 
1.2858155966

>  <CNNaffinity_variance>  (136) 
0.3765915036

$$$$
137
     RDKit          3D

 43 45  0  0  0  0  0  0  0  0999 V2000
   22.8939   72.8591   -4.1955 P   0  0  2  0  0  0  0  0  0  0  0  0
   24.3047   73.3113   -4.8467 O   0  0  0  0  0  0  0  0  0  0  0  0
   22.3834   73.7548   -3.1051 O   0  0  0  0  0  0  0  0  0  0  0  0
   23.1353   71.3140   -3.7802 O   0  0  0  0  0  0  0  0  0  0  0  0
   23.1387   70.9761   -2.4053 C   0  0  0  0  0  0  0  0  0  0  0  0
   21.6414   70.2137   -0.6865 O   0  0  0  0  0  0  0  0  0  0  0  0
   19.7544   69.5013   -2.9054 O   0  0  0  0  0  0  0  0  0  0  0  0
   18.7348   71.8590   -1.9900 O   0  0  0  0  0  0  0  0  0  0  0  0
   20.6533   70.6059   -2.8032 C   0  0  1  0  0  0  0  0  0  0  0  0
   20.1181   71.6283   -1.8232 C   0  0  2  0  0  0  0  0  0  0  0  0
   21.9148   70.1217   -2.1014 C   0  0  1  0  0  0  0  0  0  0  0  0
   20.4468   70.9859   -0.4863 C   0  0  2  0  0  0  0  0  0  0  0  0
   18.9407   69.7864   -3.3506 H   0  0  0  0  0  0  0  0  0  0  0  0
   18.5775   72.2690   -2.8555 H   0  0  0  0  0  0  0  0  0  0  0  0
   18.4136   72.3497    0.9217 O   0  0  0  0  0  0  0  0  0  0  0  0
   21.4788   74.6889    3.4470 O   0  0  0  0  0  0  0  0  0  0  0  0
   20.6855   71.9565    0.5442 N   0  0  0  0  0  0  0  0  0  0  0  0
   19.9422   73.5142    2.1774 N   0  0  0  0  0  0  0  0  0  0  0  0
   19.5936   72.5841    1.1892 C   0  0  0  0  0  0  0  0  0  0  0  0
   21.9880   72.2765    0.9073 C   0  0  0  0  0  0  0  0  0  0  0  0
   22.3046   73.1651    1.8512 C   0  0  0  0  0  0  0  0  0  0  0  0
   21.2225   73.8662    2.5730 C   0  0  0  0  0  0  0  0  0  0  0  0
   19.1990   73.9656    2.6391 H   0  0  0  0  0  0  0  0  0  0  0  0
   21.9215   72.7421   -5.4814 O   0  0  0  0  0  0  0  0  0  0  0  0
   20.4902   73.4249   -5.7954 P   0  0  2  0  0  0  0  0  0  0  0  0
   20.8954   74.8546   -6.4375 O   0  0  0  0  0  0  0  0  0  0  0  0
   19.5779   73.5172   -4.6066 O   0  0  0  0  0  0  0  0  0  0  0  0
   19.8948   72.5772   -7.0321 O   0  0  0  0  0  0  0  0  0  0  0  0
   19.0148   70.6100   -6.0498 O   0  0  0  0  0  0  0  0  0  0  0  0
   17.9032   70.1461  -10.0016 O   0  0  0  0  0  0  0  0  0  0  0  0
   20.5634   71.1418   -9.3187 O   0  0  0  0  0  0  0  0  0  0  0  0
   15.9333   70.9350   -8.0147 O   0  0  0  0  0  0  0  0  0  0  0  0
   18.2067   70.8708   -8.8097 C   0  0  2  0  0  0  0  0  0  0  0  0
   19.6468   70.5798   -8.3866 C   0  0  2  0  0  0  0  0  0  0  0  0
   17.2306   70.4202   -7.7207 C   0  0  1  0  0  0  0  0  0  0  0  0
   19.9352   71.1518   -6.9979 C   0  0  1  0  0  0  0  0  0  0  0  0
   17.6567   70.9276   -6.3461 C   0  0  1  0  0  0  0  0  0  0  0  0
   18.5111   70.4159  -10.7080 H   0  0  0  0  0  0  0  0  0  0  0  0
   20.3860   70.7835  -10.2021 H   0  0  0  0  0  0  0  0  0  0  0  0
   15.6503   70.6196   -8.8872 H   0  0  0  0  0  0  0  0  0  0  0  0
   17.1397   70.8043   -4.0615 O   0  0  0  0  0  0  0  0  0  0  0  0
   16.1726   69.2594   -5.4316 O   0  0  0  0  0  0  0  0  0  0  0  0
   16.9039   70.2239   -5.2642 C   0  0  0  0  0  0  0  0  0  0  0  0
  1  4  1  0
  1 24  1  0
  1  2  1  6
  1  3  2  0
 25 28  1  0
 25 24  1  0
 25 26  1  6
 25 27  2  0
  6 11  1  0
  6 12  1  0
 29 36  1  0
 29 37  1  0
  9  7  1  1
  7 13  1  0
 10  8  1  6
  8 14  1  0
  4  5  1  0
 36 28  1  6
 33 30  1  6
 30 38  1  0
 34 31  1  6
 31 39  1  0
 35 32  1  6
 32 40  1  0
 41 43  1  0
 15 19  2  0
 42 43  2  0
 16 22  2  0
 12 17  1  1
 17 19  1  0
 17 20  1  0
 18 19  1  0
 18 22  1  0
 18 23  1  0
  9 10  1  0
  9 11  1  0
 10 12  1  0
 11  5  1  1
 33 34  1  0
 33 35  1  0
 34 36  1  0
 35 37  1  0
 37 43  1  1
 20 21  2  0
 21 22  1  0
M  CHG  3   2  -1  26  -1  41  -1
M  END
>  <COMPND>  (137) 
    udp_gluA.pdb 

>  <AUTHOR>  (137) 
    GENERATED BY OPEN BABEL 3.1.1

>  <MASTER>  (137) 
        0    0    0    0    0    0    0    0   56    0   56    0

>  <minimizedAffinity>  (137) 
-8.17606

>  <CNNscore>  (137) 
0.3281898797

>  <CNNaffinity>  (137) 
4.0092868805

>  <CNN_VS>  (137) 
1.3158073425

>  <CNNaffinity_variance>  (137) 
0.3252977431

$$$$
138
     RDKit          3D

 43 45  0  0  0  0  0  0  0  0999 V2000
   23.1773   73.7213   -5.2393 P   0  0  2  0  0  0  0  0  0  0  0  0
   23.6636   75.0047   -6.0968 O   0  0  0  0  0  0  0  0  0  0  0  0
   24.2600   73.0313   -4.4625 O   0  0  0  0  0  0  0  0  0  0  0  0
   22.3953   72.8057   -6.3200 O   0  0  0  0  0  0  0  0  0  0  0  0
   21.0441   72.4666   -6.0673 C   0  0  0  0  0  0  0  0  0  0  0  0
   19.9001   70.5675   -6.9958 O   0  0  0  0  0  0  0  0  0  0  0  0
   19.1457   72.3690   -9.2711 O   0  0  0  0  0  0  0  0  0  0  0  0
   16.8697   72.3201   -7.7699 O   0  0  0  0  0  0  0  0  0  0  0  0
   19.2729   72.6728   -7.8818 C   0  0  1  0  0  0  0  0  0  0  0  0
   18.1002   72.1040   -7.1114 C   0  0  2  0  0  0  0  0  0  0  0  0
   20.4392   71.8650   -7.3292 C   0  0  1  0  0  0  0  0  0  0  0  0
   18.4654   70.6320   -7.0228 C   0  0  2  0  0  0  0  0  0  0  0  0
   18.4066   72.8735   -9.6464 H   0  0  0  0  0  0  0  0  0  0  0  0
   16.6822   73.2719   -7.8004 H   0  0  0  0  0  0  0  0  0  0  0  0
   15.7832   69.8108   -6.6942 O   0  0  0  0  0  0  0  0  0  0  0  0
   16.5905   68.2541   -2.4316 O   0  0  0  0  0  0  0  0  0  0  0  0
   17.9476   70.0094   -5.8373 N   0  0  0  0  0  0  0  0  0  0  0  0
   16.1876   69.0372   -4.5711 N   0  0  0  0  0  0  0  0  0  0  0  0
   16.5845   69.6353   -5.7744 C   0  0  0  0  0  0  0  0  0  0  0  0
   18.7864   69.7738   -4.7548 C   0  0  0  0  0  0  0  0  0  0  0  0
   18.3936   69.2027   -3.6145 C   0  0  0  0  0  0  0  0  0  0  0  0
   16.9846   68.7828   -3.4668 C   0  0  0  0  0  0  0  0  0  0  0  0
   15.2425   68.7700   -4.5029 H   0  0  0  0  0  0  0  0  0  0  0  0
   21.9785   74.3214   -4.3362 O   0  0  0  0  0  0  0  0  0  0  0  0
   22.0092   75.1992   -2.9789 P   0  0  2  0  0  0  0  0  0  0  0  0
   20.5323   75.8603   -2.9325 O   0  0  0  0  0  0  0  0  0  0  0  0
   23.1335   76.1919   -2.9128 O   0  0  0  0  0  0  0  0  0  0  0  0
   22.0058   74.1112   -1.7877 O   0  0  0  0  0  0  0  0  0  0  0  0
   22.2770   71.7607   -1.8911 O   0  0  0  0  0  0  0  0  0  0  0  0
   19.7550   72.1740    1.3550 O   0  0  0  0  0  0  0  0  0  0  0  0
   19.3442   73.7764   -1.0530 O   0  0  0  0  0  0  0  0  0  0  0  0
   22.5701   71.5733    1.7614 O   0  0  0  0  0  0  0  0  0  0  0  0
   20.7979   72.5559    0.4580 C   0  0  2  0  0  0  0  0  0  0  0  0
   20.2368   72.6723   -0.9594 C   0  0  2  0  0  0  0  0  0  0  0  0
   21.8861   71.4813    0.5132 C   0  0  1  0  0  0  0  0  0  0  0  0
   21.3615   72.8532   -1.9798 C   0  0  1  0  0  0  0  0  0  0  0  0
   22.9006   71.6575   -0.6130 C   0  0  1  0  0  0  0  0  0  0  0  0
   19.0519   72.8423    1.3368 H   0  0  0  0  0  0  0  0  0  0  0  0
   18.6282   73.6683   -0.4080 H   0  0  0  0  0  0  0  0  0  0  0  0
   21.9356   71.4630    2.4867 H   0  0  0  0  0  0  0  0  0  0  0  0
   23.9892   70.1678   -2.0612 O   0  0  0  0  0  0  0  0  0  0  0  0
   24.1869   69.7750    0.1761 O   0  0  0  0  0  0  0  0  0  0  0  0
   23.7541   70.4393   -0.7536 C   0  0  0  0  0  0  0  0  0  0  0  0
  1  4  1  0
  1 24  1  0
  1  2  1  6
  1  3  2  0
 25 28  1  0
 25 24  1  0
 25 26  1  1
 25 27  2  0
  6 11  1  0
  6 12  1  0
 29 36  1  0
 29 37  1  0
  9  7  1  6
  7 13  1  0
 10  8  1  6
  8 14  1  0
  4  5  1  0
 36 28  1  1
 33 30  1  1
 30 38  1  0
 34 31  1  1
 31 39  1  0
 35 32  1  1
 32 40  1  0
 41 43  1  0
 15 19  2  0
 42 43  2  0
 16 22  2  0
 12 17  1  1
 17 19  1  0
 17 20  1  0
 18 19  1  0
 18 22  1  0
 18 23  1  0
  9 10  1  0
  9 11  1  0
 10 12  1  0
 11  5  1  1
 33 34  1  0
 33 35  1  0
 34 36  1  0
 35 37  1  0
 37 43  1  6
 20 21  2  0
 21 22  1  0
M  CHG  3   2  -1  26  -1  41  -1
M  END
>  <COMPND>  (138) 
    udp_gluA.pdb 

>  <AUTHOR>  (138) 
    GENERATED BY OPEN BABEL 3.1.1

>  <MASTER>  (138) 
        0    0    0    0    0    0    0    0   56    0   56    0

>  <minimizedAffinity>  (138) 
-7.79153

>  <CNNscore>  (138) 
0.3236928582

>  <CNNaffinity>  (138) 
4.1414880753

>  <CNN_VS>  (138) 
1.3405700922

>  <CNNaffinity_variance>  (138) 
0.5574054718

$$$$
139
     RDKit          3D

 43 45  0  0  0  0  0  0  0  0999 V2000
   20.2632   74.1800   -3.0188 P   0  0  2  0  0  0  0  0  0  0  0  0
   21.8042   73.8926   -3.4206 O   0  0  0  0  0  0  0  0  0  0  0  0
   19.6020   75.2832   -3.7917 O   0  0  0  0  0  0  0  0  0  0  0  0
   20.3106   74.3773   -1.4135 O   0  0  0  0  0  0  0  0  0  0  0  0
   19.1775   74.9262   -0.7660 C   0  0  0  0  0  0  0  0  0  0  0  0
   19.0744   72.6177   -0.1043 O   0  0  0  0  0  0  0  0  0  0  0  0
   18.4762   73.6283    2.6548 O   0  0  0  0  0  0  0  0  0  0  0  0
   21.1230   72.9916    2.8142 O   0  0  0  0  0  0  0  0  0  0  0  0
   19.3410   74.1762    1.6595 C   0  0  1  0  0  0  0  0  0  0  0  0
   20.6045   73.3492    1.5502 C   0  0  2  0  0  0  0  0  0  0  0  0
   18.6942   73.9510    0.2997 C   0  0  1  0  0  0  0  0  0  0  0  0
   20.1269   72.1476    0.7527 C   0  0  2  0  0  0  0  0  0  0  0  0
   18.8685   73.7603    3.5325 H   0  0  0  0  0  0  0  0  0  0  0  0
   21.4135   73.7906    3.2824 H   0  0  0  0  0  0  0  0  0  0  0  0
   19.8789   69.7385   -0.7003 O   0  0  0  0  0  0  0  0  0  0  0  0
   24.1847   70.0553   -2.3139 O   0  0  0  0  0  0  0  0  0  0  0  0
   21.1675   71.5776   -0.0554 N   0  0  0  0  0  0  0  0  0  0  0  0
   22.0240   69.8981   -1.5018 N   0  0  0  0  0  0  0  0  0  0  0  0
   20.9406   70.3629   -0.7447 C   0  0  0  0  0  0  0  0  0  0  0  0
   22.3950   72.2205   -0.1604 C   0  0  0  0  0  0  0  0  0  0  0  0
   23.4182   71.7652   -0.8860 C   0  0  0  0  0  0  0  0  0  0  0  0
   23.2638   70.5017   -1.6365 C   0  0  0  0  0  0  0  0  0  0  0  0
   21.8905   69.0530   -1.9890 H   0  0  0  0  0  0  0  0  0  0  0  0
   19.5681   72.7302   -3.1862 O   0  0  0  0  0  0  0  0  0  0  0  0
   19.7397   71.5961   -4.3255 P   0  0  2  0  0  0  0  0  0  0  0  0
   18.5049   70.5904   -4.0352 O   0  0  0  0  0  0  0  0  0  0  0  0
   21.0870   70.9338   -4.3371 O   0  0  0  0  0  0  0  0  0  0  0  0
   19.3461   72.3371   -5.7033 O   0  0  0  0  0  0  0  0  0  0  0  0
   17.4378   73.6315   -6.2438 O   0  0  0  0  0  0  0  0  0  0  0  0
   18.3206   71.8771   -9.8785 O   0  0  0  0  0  0  0  0  0  0  0  0
   18.4687   70.3231   -7.4091 O   0  0  0  0  0  0  0  0  0  0  0  0
   18.9670   74.6728   -9.4123 O   0  0  0  0  0  0  0  0  0  0  0  0
   18.6090   72.4344   -8.5962 C   0  0  2  0  0  0  0  0  0  0  0  0
   17.8977   71.6222   -7.5136 C   0  0  2  0  0  0  0  0  0  0  0  0
   18.1133   73.8822   -8.5874 C   0  0  1  0  0  0  0  0  0  0  0  0
   17.9933   72.3189   -6.1555 C   0  0  1  0  0  0  0  0  0  0  0  0
   18.1212   74.4651   -7.1772 C   0  0  1  0  0  0  0  0  0  0  0  0
   18.6268   70.9569   -9.9076 H   0  0  0  0  0  0  0  0  0  0  0  0
   18.4117   69.8754   -8.2674 H   0  0  0  0  0  0  0  0  0  0  0  0
   18.9710   74.3122  -10.3128 H   0  0  0  0  0  0  0  0  0  0  0  0
   18.0294   76.7468   -7.7129 O   0  0  0  0  0  0  0  0  0  0  0  0
   16.2318   75.8606   -6.6255 O   0  0  0  0  0  0  0  0  0  0  0  0
   17.3402   75.7378   -7.1249 C   0  0  0  0  0  0  0  0  0  0  0  0
  1  4  1  0
  1 24  1  0
  1  2  1  6
  1  3  2  0
 25 28  1  0
 25 24  1  0
 25 26  1  1
 25 27  2  0
  6 11  1  0
  6 12  1  0
 29 36  1  0
 29 37  1  0
  9  7  1  1
  7 13  1  0
 10  8  1  1
  8 14  1  0
  4  5  1  0
 36 28  1  6
 33 30  1  6
 30 38  1  0
 34 31  1  1
 31 39  1  0
 35 32  1  6
 32 40  1  0
 41 43  1  0
 15 19  2  0
 42 43  2  0
 16 22  2  0
 12 17  1  6
 17 19  1  0
 17 20  1  0
 18 19  1  0
 18 22  1  0
 18 23  1  0
  9 10  1  0
  9 11  1  0
 10 12  1  0
 11  5  1  6
 33 34  1  0
 33 35  1  0
 34 36  1  0
 35 37  1  0
 37 43  1  6
 20 21  2  0
 21 22  1  0
M  CHG  3   2  -1  26  -1  41  -1
M  END
>  <COMPND>  (139) 
    udp_gluA.pdb 

>  <AUTHOR>  (139) 
    GENERATED BY OPEN BABEL 3.1.1

>  <MASTER>  (139) 
        0    0    0    0    0    0    0    0   56    0   56    0

>  <minimizedAffinity>  (139) 
-6.92057

>  <CNNscore>  (139) 
0.3011626899

>  <CNNaffinity>  (139) 
3.7653975487

>  <CNN_VS>  (139) 
1.1339972019

>  <CNNaffinity_variance>  (139) 
0.4897539020

$$$$
140
     RDKit          3D

 43 45  0  0  0  0  0  0  0  0999 V2000
   19.0964   73.8968   -3.3960 P   0  0  2  0  0  0  0  0  0  0  0  0
   18.6366   75.0691   -2.3795 O   0  0  0  0  0  0  0  0  0  0  0  0
   18.0277   72.9009   -3.7394 O   0  0  0  0  0  0  0  0  0  0  0  0
   20.4295   73.2884   -2.7099 O   0  0  0  0  0  0  0  0  0  0  0  0
   20.8086   71.9620   -3.0283 C   0  0  0  0  0  0  0  0  0  0  0  0
   22.8110   72.8667   -2.0539 O   0  0  0  0  0  0  0  0  0  0  0  0
   24.1359   70.2963   -2.8471 O   0  0  0  0  0  0  0  0  0  0  0  0
   23.6599   69.9254   -0.1878 O   0  0  0  0  0  0  0  0  0  0  0  0
   22.8040   70.5212   -2.3844 C   0  0  1  0  0  0  0  0  0  0  0  0
   22.8063   70.7996   -0.8961 C   0  0  2  0  0  0  0  0  0  0  0  0
   22.3260   71.8489   -2.9561 C   0  0  1  0  0  0  0  0  0  0  0  0
   23.2759   72.2435   -0.8461 C   0  0  2  0  0  0  0  0  0  0  0  0
   24.4630   69.4534   -2.4947 H   0  0  0  0  0  0  0  0  0  0  0  0
   23.3180   69.0191   -0.2496 H   0  0  0  0  0  0  0  0  0  0  0  0
   23.5678   75.0215   -0.4290 O   0  0  0  0  0  0  0  0  0  0  0  0
   21.1880   74.8643    3.5151 O   0  0  0  0  0  0  0  0  0  0  0  0
   22.7426   72.9544    0.2813 N   0  0  0  0  0  0  0  0  0  0  0  0
   22.3831   74.9404    1.5355 N   0  0  0  0  0  0  0  0  0  0  0  0
   22.9458   74.3499    0.3962 C   0  0  0  0  0  0  0  0  0  0  0  0
   22.0265   72.2710    1.2566 C   0  0  0  0  0  0  0  0  0  0  0  0
   21.4961   72.8475    2.3369 C   0  0  0  0  0  0  0  0  0  0  0  0
   21.6635   74.3025    2.5329 C   0  0  0  0  0  0  0  0  0  0  0  0
   22.5132   75.9108    1.6384 H   0  0  0  0  0  0  0  0  0  0  0  0
   19.6806   74.7198   -4.6586 O   0  0  0  0  0  0  0  0  0  0  0  0
   20.0842   74.2345   -6.1470 P   0  0  2  0  0  0  0  0  0  0  0  0
   21.5413   73.5623   -5.9345 O   0  0  0  0  0  0  0  0  0  0  0  0
   20.0501   75.3233   -7.1801 O   0  0  0  0  0  0  0  0  0  0  0  0
   19.1028   72.9911   -6.4522 O   0  0  0  0  0  0  0  0  0  0  0  0
   19.3623   70.6993   -5.9141 O   0  0  0  0  0  0  0  0  0  0  0  0
   17.2166   70.4975   -9.4388 O   0  0  0  0  0  0  0  0  0  0  0  0
   19.4169   72.3976   -9.1513 O   0  0  0  0  0  0  0  0  0  0  0  0
   15.8939   70.0140   -6.8956 O   0  0  0  0  0  0  0  0  0  0  0  0
   17.6298   71.0641   -8.1953 C   0  0  2  0  0  0  0  0  0  0  0  0
   19.1318   71.3465   -8.2356 C   0  0  2  0  0  0  0  0  0  0  0  0
   17.3066   70.0593   -7.0872 C   0  0  1  0  0  0  0  0  0  0  0  0
   19.6524   71.7368   -6.8516 C   0  0  1  0  0  0  0  0  0  0  0  0
   17.9653   70.4534   -5.7684 C   0  0  1  0  0  0  0  0  0  0  0  0
   17.4121   71.1185  -10.1581 H   0  0  0  0  0  0  0  0  0  0  0  0
   19.0890   72.1567  -10.0316 H   0  0  0  0  0  0  0  0  0  0  0  0
   15.4626   69.7644   -7.7278 H   0  0  0  0  0  0  0  0  0  0  0  0
   19.1385   69.1387   -4.2202 O   0  0  0  0  0  0  0  0  0  0  0  0
   16.9357   68.6470   -4.5444 O   0  0  0  0  0  0  0  0  0  0  0  0
   17.9239   69.3204   -4.7953 C   0  0  0  0  0  0  0  0  0  0  0  0
  1  4  1  0
  1 24  1  0
  1  2  1  1
  1  3  2  0
 25 28  1  0
 25 24  1  0
 25 26  1  1
 25 27  2  0
  6 11  1  0
  6 12  1  0
 29 36  1  0
 29 37  1  0
  9  7  1  6
  7 13  1  0
 10  8  1  1
  8 14  1  0
  4  5  1  0
 36 28  1  1
 33 30  1  6
 30 38  1  0
 34 31  1  6
 31 39  1  0
 35 32  1  1
 32 40  1  0
 41 43  1  0
 15 19  2  0
 42 43  2  0
 16 22  2  0
 12 17  1  1
 17 19  1  0
 17 20  1  0
 18 19  1  0
 18 22  1  0
 18 23  1  0
  9 10  1  0
  9 11  1  0
 10 12  1  0
 11  5  1  1
 33 34  1  0
 33 35  1  0
 34 36  1  0
 35 37  1  0
 37 43  1  1
 20 21  2  0
 21 22  1  0
M  CHG  3   2  -1  26  -1  41  -1
M  END
>  <COMPND>  (140) 
    udp_gluA.pdb 

>  <AUTHOR>  (140) 
    GENERATED BY OPEN BABEL 3.1.1

>  <MASTER>  (140) 
        0    0    0    0    0    0    0    0   56    0   56    0

>  <minimizedAffinity>  (140) 
-7.53669

>  <CNNscore>  (140) 
0.2987866998

>  <CNNaffinity>  (140) 
4.0117301941

>  <CNN_VS>  (140) 
1.1986516714

>  <CNNaffinity_variance>  (140) 
0.3548074365

$$$$
141
     RDKit          3D

 43 45  0  0  0  0  0  0  0  0999 V2000
   20.8797   70.3764   -1.3086 P   0  0  2  0  0  0  0  0  0  0  0  0
   22.2564   69.5478   -1.1161 O   0  0  0  0  0  0  0  0  0  0  0  0
   20.3145   70.9670   -0.0502 O   0  0  0  0  0  0  0  0  0  0  0  0
   19.9130   69.3460   -2.0970 O   0  0  0  0  0  0  0  0  0  0  0  0
   19.5613   69.6394   -3.4367 C   0  0  0  0  0  0  0  0  0  0  0  0
   18.3377   71.3345   -4.6229 O   0  0  0  0  0  0  0  0  0  0  0  0
   15.9610   70.4913   -3.0007 O   0  0  0  0  0  0  0  0  0  0  0  0
   15.5149   69.2629   -5.3941 O   0  0  0  0  0  0  0  0  0  0  0  0
   17.0196   69.6953   -3.5337 C   0  0  1  0  0  0  0  0  0  0  0  0
   16.8522   69.5341   -5.0297 C   0  0  2  0  0  0  0  0  0  0  0  0
   18.3068   70.5034   -3.4424 C   0  0  1  0  0  0  0  0  0  0  0  0
   17.3386   70.8768   -5.5480 C   0  0  2  0  0  0  0  0  0  0  0  0
   15.1279   69.9958   -3.0483 H   0  0  0  0  0  0  0  0  0  0  0  0
   15.2528   68.3977   -5.0410 H   0  0  0  0  0  0  0  0  0  0  0  0
   15.8582   70.7494   -7.9498 O   0  0  0  0  0  0  0  0  0  0  0  0
   19.6840   70.5088  -10.5089 O   0  0  0  0  0  0  0  0  0  0  0  0
   17.9224   70.7805   -6.8559 N   0  0  0  0  0  0  0  0  0  0  0  0
   17.7651   70.6286   -9.2220 N   0  0  0  0  0  0  0  0  0  0  0  0
   17.0894   70.7222   -7.9982 C   0  0  0  0  0  0  0  0  0  0  0  0
   19.3043   70.7464   -6.9978 C   0  0  0  0  0  0  0  0  0  0  0  0
   19.9339   70.6572   -8.1711 C   0  0  0  0  0  0  0  0  0  0  0  0
   19.1367   70.5908   -9.4135 C   0  0  0  0  0  0  0  0  0  0  0  0
   17.2062   70.5847  -10.0314 H   0  0  0  0  0  0  0  0  0  0  0  0
   21.2633   71.4581   -2.4469 O   0  0  0  0  0  0  0  0  0  0  0  0
   22.5657   72.4001   -2.6201 P   0  0  2  0  0  0  0  0  0  0  0  0
   23.5717   71.4830   -3.4960 O   0  0  0  0  0  0  0  0  0  0  0  0
   23.1462   72.8924   -1.3260 O   0  0  0  0  0  0  0  0  0  0  0  0
   22.0954   73.5671   -3.6297 O   0  0  0  0  0  0  0  0  0  0  0  0
   20.0237   73.8951   -4.7296 O   0  0  0  0  0  0  0  0  0  0  0  0
   22.6907   75.4347   -7.4837 O   0  0  0  0  0  0  0  0  0  0  0  0
   23.2955   72.9547   -6.0630 O   0  0  0  0  0  0  0  0  0  0  0  0
   21.0794   77.2240   -5.8549 O   0  0  0  0  0  0  0  0  0  0  0  0
   22.2008   75.1166   -6.1811 C   0  0  2  0  0  0  0  0  0  0  0  0
   22.0287   73.6027   -6.0546 C   0  0  2  0  0  0  0  0  0  0  0  0
   20.8556   75.8224   -5.9964 C   0  0  1  0  0  0  0  0  0  0  0  0
   21.2931   73.2417   -4.7633 C   0  0  1  0  0  0  0  0  0  0  0  0
   20.1271   75.3170   -4.7544 C   0  0  1  0  0  0  0  0  0  0  0  0
   23.5451   74.9969   -7.6238 H   0  0  0  0  0  0  0  0  0  0  0  0
   23.7678   73.1796   -6.8795 H   0  0  0  0  0  0  0  0  0  0  0  0
   21.5426   77.5582   -6.6388 H   0  0  0  0  0  0  0  0  0  0  0  0
   17.8722   74.6960   -4.9304 O   0  0  0  0  0  0  0  0  0  0  0  0
   18.3205   76.9114   -4.6299 O   0  0  0  0  0  0  0  0  0  0  0  0
   18.6994   75.7571   -4.7610 C   0  0  0  0  0  0  0  0  0  0  0  0
  1  4  1  0
  1 24  1  0
  1  2  1  1
  1  3  2  0
 25 28  1  0
 25 24  1  0
 25 26  1  6
 25 27  2  0
  6 11  1  0
  6 12  1  0
 29 36  1  0
 29 37  1  0
  9  7  1  6
  7 13  1  0
 10  8  1  1
  8 14  1  0
  4  5  1  0
 36 28  1  1
 33 30  1  6
 30 38  1  0
 34 31  1  1
 31 39  1  0
 35 32  1  1
 32 40  1  0
 41 43  1  0
 15 19  2  0
 42 43  2  0
 16 22  2  0
 12 17  1  6
 17 19  1  0
 17 20  1  0
 18 19  1  0
 18 22  1  0
 18 23  1  0
  9 10  1  0
  9 11  1  0
 10 12  1  0
 11  5  1  6
 33 34  1  0
 33 35  1  0
 34 36  1  0
 35 37  1  0
 37 43  1  6
 20 21  2  0
 21 22  1  0
M  CHG  3   2  -1  26  -1  41  -1
M  END
>  <COMPND>  (141) 
    udp_gluA.pdb 

>  <AUTHOR>  (141) 
    GENERATED BY OPEN BABEL 3.1.1

>  <MASTER>  (141) 
        0    0    0    0    0    0    0    0   56    0   56    0

>  <minimizedAffinity>  (141) 
-7.15128

>  <CNNscore>  (141) 
0.8783834577

>  <CNNaffinity>  (141) 
4.6106863022

>  <CNN_VS>  (141) 
4.0499505997

>  <CNNaffinity_variance>  (141) 
0.4852442145

$$$$
142
     RDKit          3D

 43 45  0  0  0  0  0  0  0  0999 V2000
   22.7042   71.1246   -3.0422 P   0  0  2  0  0  0  0  0  0  0  0  0
   23.7494   72.0679   -3.8401 O   0  0  0  0  0  0  0  0  0  0  0  0
   23.1604   69.7106   -2.8314 O   0  0  0  0  0  0  0  0  0  0  0  0
   21.3191   71.3015   -3.8595 O   0  0  0  0  0  0  0  0  0  0  0  0
   20.8331   72.6110   -4.0910 C   0  0  0  0  0  0  0  0  0  0  0  0
   18.5895   72.8358   -4.9237 O   0  0  0  0  0  0  0  0  0  0  0  0
   17.6987   71.7026   -2.2943 O   0  0  0  0  0  0  0  0  0  0  0  0
   17.5210   69.5517   -3.9610 O   0  0  0  0  0  0  0  0  0  0  0  0
   18.8522   71.3820   -3.0721 C   0  0  1  0  0  0  0  0  0  0  0  0
   18.4576   70.5594   -4.2803 C   0  0  2  0  0  0  0  0  0  0  0  0
   19.3585   72.6669   -3.7131 C   0  0  1  0  0  0  0  0  0  0  0  0
   17.8849   71.6169   -5.2086 C   0  0  2  0  0  0  0  0  0  0  0  0
   17.3571   70.8971   -1.8747 H   0  0  0  0  0  0  0  0  0  0  0  0
   17.9336   68.9030   -3.3685 H   0  0  0  0  0  0  0  0  0  0  0  0
   16.1739   69.9174   -6.6784 O   0  0  0  0  0  0  0  0  0  0  0  0
   18.6747   70.4179  -10.5176 O   0  0  0  0  0  0  0  0  0  0  0  0
   18.0655   71.2861   -6.5938 N   0  0  0  0  0  0  0  0  0  0  0  0
   17.4216   70.1675   -8.5889 N   0  0  0  0  0  0  0  0  0  0  0  0
   17.1486   70.4225   -7.2385 C   0  0  0  0  0  0  0  0  0  0  0  0
   19.1392   71.8157   -7.2991 C   0  0  0  0  0  0  0  0  0  0  0  0
   19.3863   71.5636   -8.5860 C   0  0  0  0  0  0  0  0  0  0  0  0
   18.4767   70.6703   -9.3330 C   0  0  0  0  0  0  0  0  0  0  0  0
   16.7983   69.5674   -9.0585 H   0  0  0  0  0  0  0  0  0  0  0  0
   22.4320   71.9542   -1.6819 O   0  0  0  0  0  0  0  0  0  0  0  0
   21.9259   71.4680   -0.2255 P   0  0  2  0  0  0  0  0  0  0  0  0
   23.2632   70.8468    0.4424 O   0  0  0  0  0  0  0  0  0  0  0  0
   20.7580   70.5255   -0.2623 O   0  0  0  0  0  0  0  0  0  0  0  0
   21.6591   72.8331    0.5918 O   0  0  0  0  0  0  0  0  0  0  0  0
   22.2278   73.5498    2.7763 O   0  0  0  0  0  0  0  0  0  0  0  0
   18.4682   75.1959    2.3035 O   0  0  0  0  0  0  0  0  0  0  0  0
   19.0192   72.4759    1.3913 O   0  0  0  0  0  0  0  0  0  0  0  0
   20.8318   76.8775    2.1131 O   0  0  0  0  0  0  0  0  0  0  0  0
   19.7520   74.7362    1.8811 C   0  0  2  0  0  0  0  0  0  0  0  0
   19.8947   73.2487    2.2042 C   0  0  2  0  0  0  0  0  0  0  0  0
   20.8138   75.5472    2.6274 C   0  0  1  0  0  0  0  0  0  0  0  0
   21.3313   72.7752    1.9788 C   0  0  1  0  0  0  0  0  0  0  0  0
   22.2025   74.9388    2.4551 C   0  0  1  0  0  0  0  0  0  0  0  0
   17.7772   74.6947    1.8424 H   0  0  0  0  0  0  0  0  0  0  0  0
   18.1058   72.7711    1.5291 H   0  0  0  0  0  0  0  0  0  0  0  0
   19.9536   77.2761    2.2166 H   0  0  0  0  0  0  0  0  0  0  0  0
   23.3314   74.7011    4.4974 O   0  0  0  0  0  0  0  0  0  0  0  0
   23.7299   76.6026    3.3038 O   0  0  0  0  0  0  0  0  0  0  0  0
   23.1647   75.5272    3.4350 C   0  0  0  0  0  0  0  0  0  0  0  0
  1  4  1  0
  1 24  1  0
  1  2  1  6
  1  3  2  0
 25 28  1  0
 25 24  1  0
 25 26  1  1
 25 27  2  0
  6 11  1  0
  6 12  1  0
 29 36  1  0
 29 37  1  0
  9  7  1  1
  7 13  1  0
 10  8  1  1
  8 14  1  0
  4  5  1  0
 36 28  1  6
 33 30  1  1
 30 38  1  0
 34 31  1  6
 31 39  1  0
 35 32  1  6
 32 40  1  0
 41 43  1  0
 15 19  2  0
 42 43  2  0
 16 22  2  0
 12 17  1  6
 17 19  1  0
 17 20  1  0
 18 19  1  0
 18 22  1  0
 18 23  1  0
  9 10  1  0
  9 11  1  0
 10 12  1  0
 11  5  1  6
 33 34  1  0
 33 35  1  0
 34 36  1  0
 35 37  1  0
 37 43  1  1
 20 21  2  0
 21 22  1  0
M  CHG  3   2  -1  26  -1  41  -1
M  END
>  <COMPND>  (142) 
    udp_gluA.pdb 

>  <AUTHOR>  (142) 
    GENERATED BY OPEN BABEL 3.1.1

>  <MASTER>  (142) 
        0    0    0    0    0    0    0    0   56    0   56    0

>  <minimizedAffinity>  (142) 
-7.75424

>  <CNNscore>  (142) 
0.6037881374

>  <CNNaffinity>  (142) 
4.4574594498

>  <CNN_VS>  (142) 
2.6913611889

>  <CNNaffinity_variance>  (142) 
0.0808392614

$$$$
143
     RDKit          3D

 43 45  0  0  0  0  0  0  0  0999 V2000
   22.6263   72.9099   -4.0367 P   0  0  2  0  0  0  0  0  0  0  0  0
   24.1013   72.9516   -4.7011 O   0  0  0  0  0  0  0  0  0  0  0  0
   22.2969   74.0760   -3.1515 O   0  0  0  0  0  0  0  0  0  0  0  0
   22.5572   71.4536   -3.3350 O   0  0  0  0  0  0  0  0  0  0  0  0
   23.3619   71.2135   -2.1951 C   0  0  0  0  0  0  0  0  0  0  0  0
   22.8675   71.0337    0.1503 O   0  0  0  0  0  0  0  0  0  0  0  0
   20.3581   69.6162   -0.6772 O   0  0  0  0  0  0  0  0  0  0  0  0
   19.4648   72.1311   -0.1173 O   0  0  0  0  0  0  0  0  0  0  0  0
   21.0317   70.7045   -1.3099 C   0  0  1  0  0  0  0  0  0  0  0  0
   20.8069   71.9836   -0.5316 C   0  0  2  0  0  0  0  0  0  0  0  0
   22.5299   70.4899   -1.1441 C   0  0  1  0  0  0  0  0  0  0  0  0
   21.7641   71.8148    0.6359 C   0  0  2  0  0  0  0  0  0  0  0  0
   19.3990   69.7313   -0.7699 H   0  0  0  0  0  0  0  0  0  0  0  0
   18.8955   72.2354   -0.8964 H   0  0  0  0  0  0  0  0  0  0  0  0
   21.8877   72.5282    3.3658 O   0  0  0  0  0  0  0  0  0  0  0  0
   23.6851   76.6594    2.3930 O   0  0  0  0  0  0  0  0  0  0  0  0
   22.2600   73.0705    1.1240 N   0  0  0  0  0  0  0  0  0  0  0  0
   22.7819   74.5855    2.8786 N   0  0  0  0  0  0  0  0  0  0  0  0
   22.2788   73.3294    2.5149 C   0  0  0  0  0  0  0  0  0  0  0  0
   22.7220   74.0286    0.2297 C   0  0  0  0  0  0  0  0  0  0  0  0
   23.1987   75.2213    0.5915 C   0  0  0  0  0  0  0  0  0  0  0  0
   23.2520   75.5712    2.0261 C   0  0  0  0  0  0  0  0  0  0  0  0
   22.8030   74.7894    3.8416 H   0  0  0  0  0  0  0  0  0  0  0  0
   21.6556   72.7421   -5.3183 O   0  0  0  0  0  0  0  0  0  0  0  0
   20.2125   73.3916   -5.6491 P   0  0  2  0  0  0  0  0  0  0  0  0
   20.5884   74.8660   -6.2016 O   0  0  0  0  0  0  0  0  0  0  0  0
   19.2566   73.3902   -4.4914 O   0  0  0  0  0  0  0  0  0  0  0  0
   19.6913   72.5904   -6.9487 O   0  0  0  0  0  0  0  0  0  0  0  0
   19.1602   70.4599   -6.0610 O   0  0  0  0  0  0  0  0  0  0  0  0
   17.6868   70.1585   -9.9089 O   0  0  0  0  0  0  0  0  0  0  0  0
   20.2704   71.4266   -9.4076 O   0  0  0  0  0  0  0  0  0  0  0  0
   15.8663   70.5417   -7.6751 O   0  0  0  0  0  0  0  0  0  0  0  0
   18.0314   70.8239   -8.6938 C   0  0  2  0  0  0  0  0  0  0  0  0
   19.5331   70.6853   -8.4425 C   0  0  2  0  0  0  0  0  0  0  0  0
   17.2392   70.1735   -7.5574 C   0  0  1  0  0  0  0  0  0  0  0  0
   19.9020   71.1828   -7.0442 C   0  0  1  0  0  0  0  0  0  0  0  0
   17.7501   70.6255   -6.1924 C   0  0  1  0  0  0  0  0  0  0  0  0
   18.1783   70.5549  -10.6455 H   0  0  0  0  0  0  0  0  0  0  0  0
   20.0411   71.1163  -10.2972 H   0  0  0  0  0  0  0  0  0  0  0  0
   15.5289   70.2598   -8.5398 H   0  0  0  0  0  0  0  0  0  0  0  0
   18.1938   69.0015   -4.5592 O   0  0  0  0  0  0  0  0  0  0  0  0
   16.0380   69.7180   -4.7548 O   0  0  0  0  0  0  0  0  0  0  0  0
   17.2074   69.7533   -5.1075 C   0  0  0  0  0  0  0  0  0  0  0  0
  1  4  1  0
  1 24  1  0
  1  2  1  6
  1  3  2  0
 25 28  1  0
 25 24  1  0
 25 26  1  6
 25 27  2  0
  6 11  1  0
  6 12  1  0
 29 36  1  0
 29 37  1  0
  9  7  1  1
  7 13  1  0
 10  8  1  1
  8 14  1  0
  4  5  1  0
 36 28  1  6
 33 30  1  6
 30 38  1  0
 34 31  1  6
 31 39  1  0
 35 32  1  6
 32 40  1  0
 41 43  1  0
 15 19  2  0
 42 43  2  0
 16 22  2  0
 12 17  1  6
 17 19  1  0
 17 20  1  0
 18 19  1  0
 18 22  1  0
 18 23  1  0
  9 10  1  0
  9 11  1  0
 10 12  1  0
 11  5  1  6
 33 34  1  0
 33 35  1  0
 34 36  1  0
 35 37  1  0
 37 43  1  1
 20 21  2  0
 21 22  1  0
M  CHG  3   2  -1  26  -1  41  -1
M  END
>  <COMPND>  (143) 
    udp_gluA.pdb 

>  <AUTHOR>  (143) 
    GENERATED BY OPEN BABEL 3.1.1

>  <MASTER>  (143) 
        0    0    0    0    0    0    0    0   56    0   56    0

>  <minimizedAffinity>  (143) 
-8.66443

>  <CNNscore>  (143) 
0.5424578190

>  <CNNaffinity>  (143) 
4.2943749428

>  <CNN_VS>  (143) 
2.3295173645

>  <CNNaffinity_variance>  (143) 
0.1916922182

$$$$
144
     RDKit          3D

 43 45  0  0  0  0  0  0  0  0999 V2000
   19.6213   69.7345   -2.5333 P   0  0  2  0  0  0  0  0  0  0  0  0
   19.7640   69.3092   -0.9785 O   0  0  0  0  0  0  0  0  0  0  0  0
   20.5679   69.0417   -3.4691 O   0  0  0  0  0  0  0  0  0  0  0  0
   19.7177   71.3494   -2.5048 O   0  0  0  0  0  0  0  0  0  0  0  0
   18.5710   72.0886   -2.1263 C   0  0  0  0  0  0  0  0  0  0  0  0
   20.0202   72.5421   -0.2631 O   0  0  0  0  0  0  0  0  0  0  0  0
   19.3657   75.4360   -0.6974 O   0  0  0  0  0  0  0  0  0  0  0  0
   21.8243   75.2010   -1.8534 O   0  0  0  0  0  0  0  0  0  0  0  0
   19.5388   74.3945   -1.6586 C   0  0  1  0  0  0  0  0  0  0  0  0
   21.0065   74.0509   -1.8007 C   0  0  2  0  0  0  0  0  0  0  0  0
   18.9669   73.1121   -1.0699 C   0  0  1  0  0  0  0  0  0  0  0  0
   21.2557   73.2125   -0.5586 C   0  0  2  0  0  0  0  0  0  0  0  0
   19.7237   76.2656   -1.0512 H   0  0  0  0  0  0  0  0  0  0  0  0
   21.6280   75.7006   -2.6620 H   0  0  0  0  0  0  0  0  0  0  0  0
   22.3548   71.6156    1.4953 O   0  0  0  0  0  0  0  0  0  0  0  0
   25.1958   69.4773   -1.4374 O   0  0  0  0  0  0  0  0  0  0  0  0
   22.2838   72.2305   -0.7575 N   0  0  0  0  0  0  0  0  0  0  0  0
   23.7695   70.5529    0.0329 N   0  0  0  0  0  0  0  0  0  0  0  0
   22.7668   71.4816    0.3415 C   0  0  0  0  0  0  0  0  0  0  0  0
   22.8015   72.0161   -2.0292 C   0  0  0  0  0  0  0  0  0  0  0  0
   23.7570   71.1272   -2.3078 C   0  0  0  0  0  0  0  0  0  0  0  0
   24.3166   70.3044   -1.2155 C   0  0  0  0  0  0  0  0  0  0  0  0
   24.1229   70.0210    0.7823 H   0  0  0  0  0  0  0  0  0  0  0  0
   18.0565   69.4693   -2.8400 O   0  0  0  0  0  0  0  0  0  0  0  0
   17.3071   68.9773   -4.1854 P   0  0  2  0  0  0  0  0  0  0  0  0
   15.8933   69.7636   -4.1298 O   0  0  0  0  0  0  0  0  0  0  0  0
   17.1811   67.4865   -4.3101 O   0  0  0  0  0  0  0  0  0  0  0  0
   18.1187   69.6835   -5.3875 O   0  0  0  0  0  0  0  0  0  0  0  0
   19.0096   71.8700   -5.5746 O   0  0  0  0  0  0  0  0  0  0  0  0
   17.9277   71.0659   -9.4799 O   0  0  0  0  0  0  0  0  0  0  0  0
   16.1709   70.3110   -7.2712 O   0  0  0  0  0  0  0  0  0  0  0  0
   20.7240   70.9698   -8.6911 O   0  0  0  0  0  0  0  0  0  0  0  0
   18.3831   70.7542   -8.1633 C   0  0  2  0  0  0  0  0  0  0  0  0
   17.3135   71.1496   -7.1448 C   0  0  2  0  0  0  0  0  0  0  0  0
   19.6733   71.5377   -7.9114 C   0  0  1  0  0  0  0  0  0  0  0  0
   17.8523   71.0455   -5.7173 C   0  0  1  0  0  0  0  0  0  0  0  0
   20.0765   71.4890   -6.4404 C   0  0  1  0  0  0  0  0  0  0  0  0
   17.1084   70.5793   -9.6624 H   0  0  0  0  0  0  0  0  0  0  0  0
   15.8240   70.3719   -8.1747 H   0  0  0  0  0  0  0  0  0  0  0  0
   20.4799   70.9946   -9.6295 H   0  0  0  0  0  0  0  0  0  0  0  0
   20.6729   73.4211   -5.2519 O   0  0  0  0  0  0  0  0  0  0  0  0
   22.2483   72.5220   -6.6335 O   0  0  0  0  0  0  0  0  0  0  0  0
   21.1286   72.5078   -6.1447 C   0  0  0  0  0  0  0  0  0  0  0  0
  1  4  1  0
  1 24  1  0
  1  2  1  1
  1  3  2  0
 25 28  1  0
 25 24  1  0
 25 26  1  1
 25 27  2  0
  6 11  1  0
  6 12  1  0
 29 36  1  0
 29 37  1  0
  9  7  1  1
  7 13  1  0
 10  8  1  1
  8 14  1  0
  4  5  1  0
 36 28  1  6
 33 30  1  6
 30 38  1  0
 34 31  1  1
 31 39  1  0
 35 32  1  6
 32 40  1  0
 41 43  1  0
 15 19  2  0
 42 43  2  0
 16 22  2  0
 12 17  1  6
 17 19  1  0
 17 20  1  0
 18 19  1  0
 18 22  1  0
 18 23  1  0
  9 10  1  0
  9 11  1  0
 10 12  1  0
 11  5  1  6
 33 34  1  0
 33 35  1  0
 34 36  1  0
 35 37  1  0
 37 43  1  6
 20 21  2  0
 21 22  1  0
M  CHG  3   2  -1  26  -1  41  -1
M  END
>  <COMPND>  (144) 
    udp_gluA.pdb 

>  <AUTHOR>  (144) 
    GENERATED BY OPEN BABEL 3.1.1

>  <MASTER>  (144) 
        0    0    0    0    0    0    0    0   56    0   56    0

>  <minimizedAffinity>  (144) 
-8.43192

>  <CNNscore>  (144) 
0.4721639752

>  <CNNaffinity>  (144) 
4.2715902328

>  <CNN_VS>  (144) 
2.0168910027

>  <CNNaffinity_variance>  (144) 
0.3172195554

$$$$
145
     RDKit          3D

 43 45  0  0  0  0  0  0  0  0999 V2000
   23.1496   70.7279   -2.6469 P   0  0  2  0  0  0  0  0  0  0  0  0
   24.5551   70.1764   -2.0643 O   0  0  0  0  0  0  0  0  0  0  0  0
   22.1594   69.6652   -3.0238 O   0  0  0  0  0  0  0  0  0  0  0  0
   23.5895   71.7321   -3.8368 O   0  0  0  0  0  0  0  0  0  0  0  0
   22.8605   72.9331   -4.0121 C   0  0  0  0  0  0  0  0  0  0  0  0
   22.1156   72.2387   -6.1895 O   0  0  0  0  0  0  0  0  0  0  0  0
   22.5533   75.0804   -7.0408 O   0  0  0  0  0  0  0  0  0  0  0  0
   19.8522   74.9753   -6.6815 O   0  0  0  0  0  0  0  0  0  0  0  0
   22.0795   74.5737   -5.7928 C   0  0  1  0  0  0  0  0  0  0  0  0
   20.6534   74.0852   -5.9329 C   0  0  2  0  0  0  0  0  0  0  0  0
   22.8305   73.2833   -5.4943 C   0  0  1  0  0  0  0  0  0  0  0  0
   20.8450   72.7470   -6.6260 C   0  0  2  0  0  0  0  0  0  0  0  0
   22.0879   75.9051   -7.2529 H   0  0  0  0  0  0  0  0  0  0  0  0
   19.7600   75.8118   -6.1981 H   0  0  0  0  0  0  0  0  0  0  0  0
   18.8006   71.9038   -8.3827 O   0  0  0  0  0  0  0  0  0  0  0  0
   16.9696   69.1127   -5.2045 O   0  0  0  0  0  0  0  0  0  0  0  0
   19.8211   71.8009   -6.2835 N   0  0  0  0  0  0  0  0  0  0  0  0
   17.8900   70.5153   -6.7978 N   0  0  0  0  0  0  0  0  0  0  0  0
   18.8404   71.4452   -7.2395 C   0  0  0  0  0  0  0  0  0  0  0  0
   19.7959   71.2350   -5.0146 C   0  0  0  0  0  0  0  0  0  0  0  0
   18.8837   70.3498   -4.6083 C   0  0  0  0  0  0  0  0  0  0  0  0
   17.8235   69.9254   -5.5459 C   0  0  0  0  0  0  0  0  0  0  0  0
   17.1958   70.2537   -7.4451 H   0  0  0  0  0  0  0  0  0  0  0  0
   22.6469   71.7361   -1.4877 O   0  0  0  0  0  0  0  0  0  0  0  0
   21.9720   71.4456   -0.0476 P   0  0  2  0  0  0  0  0  0  0  0  0
   23.1670   70.7395    0.7852 O   0  0  0  0  0  0  0  0  0  0  0  0
   20.7049   70.6429   -0.1120 O   0  0  0  0  0  0  0  0  0  0  0  0
   21.8089   72.9010    0.6290 O   0  0  0  0  0  0  0  0  0  0  0  0
   22.1836   73.7036    2.8254 O   0  0  0  0  0  0  0  0  0  0  0  0
   18.8476   75.8643    1.6986 O   0  0  0  0  0  0  0  0  0  0  0  0
   19.0619   73.0245    1.0476 O   0  0  0  0  0  0  0  0  0  0  0  0
   21.4597   77.1387    1.7586 O   0  0  0  0  0  0  0  0  0  0  0  0
   20.0835   75.1779    1.5009 C   0  0  2  0  0  0  0  0  0  0  0  0
   19.9334   73.7189    1.9325 C   0  0  2  0  0  0  0  0  0  0  0  0
   21.1523   75.8755    2.3453 C   0  0  1  0  0  0  0  0  0  0  0  0
   21.2893   73.0120    1.9528 C   0  0  1  0  0  0  0  0  0  0  0  0
   22.4320   75.0476    2.4192 C   0  0  1  0  0  0  0  0  0  0  0  0
   18.1531   75.4386    1.1716 H   0  0  0  0  0  0  0  0  0  0  0  0
   18.1997   73.4678    1.0296 H   0  0  0  0  0  0  0  0  0  0  0  0
   20.6535   77.6754    1.7056 H   0  0  0  0  0  0  0  0  0  0  0  0
   23.2827   74.7601    4.5860 O   0  0  0  0  0  0  0  0  0  0  0  0
   24.0295   76.5626    3.4060 O   0  0  0  0  0  0  0  0  0  0  0  0
   23.3348   75.5612    3.4931 C   0  0  0  0  0  0  0  0  0  0  0  0
  1  4  1  0
  1 24  1  0
  1  2  1  1
  1  3  2  0
 25 28  1  0
 25 24  1  0
 25 26  1  1
 25 27  2  0
  6 11  1  0
  6 12  1  0
 29 36  1  0
 29 37  1  0
  9  7  1  6
  7 13  1  0
 10  8  1  6
  8 14  1  0
  4  5  1  0
 36 28  1  6
 33 30  1  1
 30 38  1  0
 34 31  1  6
 31 39  1  0
 35 32  1  6
 32 40  1  0
 41 43  1  0
 15 19  2  0
 42 43  2  0
 16 22  2  0
 12 17  1  1
 17 19  1  0
 17 20  1  0
 18 19  1  0
 18 22  1  0
 18 23  1  0
  9 10  1  0
  9 11  1  0
 10 12  1  0
 11  5  1  1
 33 34  1  0
 33 35  1  0
 34 36  1  0
 35 37  1  0
 37 43  1  1
 20 21  2  0
 21 22  1  0
M  CHG  3   2  -1  26  -1  41  -1
M  END
>  <COMPND>  (145) 
    udp_gluA.pdb 

>  <AUTHOR>  (145) 
    GENERATED BY OPEN BABEL 3.1.1

>  <MASTER>  (145) 
        0    0    0    0    0    0    0    0   56    0   56    0

>  <minimizedAffinity>  (145) 
-7.10711

>  <CNNscore>  (145) 
0.3797414005

>  <CNNaffinity>  (145) 
4.2122907639

>  <CNN_VS>  (145) 
1.5995812416

>  <CNNaffinity_variance>  (145) 
0.0677333847

$$$$
146
     RDKit          3D

 43 45  0  0  0  0  0  0  0  0999 V2000
   20.0913   74.9113   -3.1505 P   0  0  2  0  0  0  0  0  0  0  0  0
   21.5287   74.5898   -2.4802 O   0  0  0  0  0  0  0  0  0  0  0  0
   20.0046   76.2299   -3.8616 O   0  0  0  0  0  0  0  0  0  0  0  0
   19.0407   74.6960   -1.9390 O   0  0  0  0  0  0  0  0  0  0  0  0
   19.4174   75.1043   -0.6368 C   0  0  0  0  0  0  0  0  0  0  0  0
   19.1767   72.7757   -0.0918 O   0  0  0  0  0  0  0  0  0  0  0  0
   18.6029   73.6817    2.7085 O   0  0  0  0  0  0  0  0  0  0  0  0
   21.2075   72.8887    2.8607 O   0  0  0  0  0  0  0  0  0  0  0  0
   19.5091   74.2279    1.7498 C   0  0  1  0  0  0  0  0  0  0  0  0
   20.7253   73.3369    1.6113 C   0  0  2  0  0  0  0  0  0  0  0  0
   18.8671   74.1069    0.3745 C   0  0  1  0  0  0  0  0  0  0  0  0
   20.1907   72.2050    0.7506 C   0  0  2  0  0  0  0  0  0  0  0  0
   18.9913   73.7478    3.5953 H   0  0  0  0  0  0  0  0  0  0  0  0
   21.5368   73.6460    3.3707 H   0  0  0  0  0  0  0  0  0  0  0  0
   19.9008   69.7652   -0.6422 O   0  0  0  0  0  0  0  0  0  0  0  0
   24.1574   70.0455   -2.3878 O   0  0  0  0  0  0  0  0  0  0  0  0
   21.2073   71.6172   -0.0752 N   0  0  0  0  0  0  0  0  0  0  0  0
   22.0215   69.9066   -1.5094 N   0  0  0  0  0  0  0  0  0  0  0  0
   20.9605   70.3881   -0.7312 C   0  0  0  0  0  0  0  0  0  0  0  0
   22.4309   72.2573   -0.2300 C   0  0  0  0  0  0  0  0  0  0  0  0
   23.4326   71.7861   -0.9753 C   0  0  0  0  0  0  0  0  0  0  0  0
   23.2566   70.5068   -1.6935 C   0  0  0  0  0  0  0  0  0  0  0  0
   21.8740   69.0513   -1.9742 H   0  0  0  0  0  0  0  0  0  0  0  0
   19.8323   73.6216   -4.0898 O   0  0  0  0  0  0  0  0  0  0  0  0
   20.8069   72.8462   -5.1206 P   0  0  2  0  0  0  0  0  0  0  0  0
   21.3065   71.5659   -4.2653 O   0  0  0  0  0  0  0  0  0  0  0  0
   21.9173   73.6924   -5.6729 O   0  0  0  0  0  0  0  0  0  0  0  0
   19.8168   72.2301   -6.2353 O   0  0  0  0  0  0  0  0  0  0  0  0
   18.9636   70.0541   -5.8530 O   0  0  0  0  0  0  0  0  0  0  0  0
   18.0495   70.6269   -9.8411 O   0  0  0  0  0  0  0  0  0  0  0  0
   20.6390   71.4657   -8.7800 O   0  0  0  0  0  0  0  0  0  0  0  0
   15.9648   70.8182   -7.8241 O   0  0  0  0  0  0  0  0  0  0  0  0
   18.2728   71.0173   -8.4862 C   0  0  2  0  0  0  0  0  0  0  0  0
   19.7016   70.6569   -8.0786 C   0  0  2  0  0  0  0  0  0  0  0  0
   17.2649   70.2731   -7.6074 C   0  0  1  0  0  0  0  0  0  0  0  0
   19.9062   70.8476   -6.5750 C   0  0  1  0  0  0  0  0  0  0  0  0
   17.6099   70.4083   -6.1271 C   0  0  1  0  0  0  0  0  0  0  0  0
   18.6789   71.0873  -10.4183 H   0  0  0  0  0  0  0  0  0  0  0  0
   20.5146   71.3498   -9.7347 H   0  0  0  0  0  0  0  0  0  0  0  0
   15.7331   70.7386   -8.7626 H   0  0  0  0  0  0  0  0  0  0  0  0
   17.6629   68.7049   -4.5155 O   0  0  0  0  0  0  0  0  0  0  0  0
   15.6208   69.2892   -5.3446 O   0  0  0  0  0  0  0  0  0  0  0  0
   16.8343   69.4270   -5.3099 C   0  0  0  0  0  0  0  0  0  0  0  0
  1  4  1  0
  1 24  1  0
  1  2  1  1
  1  3  2  0
 25 28  1  0
 25 24  1  0
 25 26  1  1
 25 27  2  0
  6 11  1  0
  6 12  1  0
 29 36  1  0
 29 37  1  0
  9  7  1  1
  7 13  1  0
 10  8  1  1
  8 14  1  0
  4  5  1  0
 36 28  1  6
 33 30  1  6
 30 38  1  0
 34 31  1  6
 31 39  1  0
 35 32  1  1
 32 40  1  0
 41 43  1  0
 15 19  2  0
 42 43  2  0
 16 22  2  0
 12 17  1  6
 17 19  1  0
 17 20  1  0
 18 19  1  0
 18 22  1  0
 18 23  1  0
  9 10  1  0
  9 11  1  0
 10 12  1  0
 11  5  1  6
 33 34  1  0
 33 35  1  0
 34 36  1  0
 35 37  1  0
 37 43  1  1
 20 21  2  0
 21 22  1  0
M  CHG  3   2  -1  26  -1  41  -1
M  END
>  <COMPND>  (146) 
    udp_gluA.pdb 

>  <AUTHOR>  (146) 
    GENERATED BY OPEN BABEL 3.1.1

>  <MASTER>  (146) 
        0    0    0    0    0    0    0    0   56    0   56    0

>  <minimizedAffinity>  (146) 
-7.99675

>  <CNNscore>  (146) 
0.3775893152

>  <CNNaffinity>  (146) 
4.0811872482

>  <CNN_VS>  (146) 
1.5410126448

>  <CNNaffinity_variance>  (146) 
0.6407927275

$$$$
147
     RDKit          3D

 43 45  0  0  0  0  0  0  0  0999 V2000
   18.2713   74.6999   -1.3840 P   0  0  2  0  0  0  0  0  0  0  0  0
   16.9819   75.4462   -0.7521 O   0  0  0  0  0  0  0  0  0  0  0  0
   19.3612   75.6139   -1.8622 O   0  0  0  0  0  0  0  0  0  0  0  0
   17.6407   73.7139   -2.5012 O   0  0  0  0  0  0  0  0  0  0  0  0
   18.5093   72.8420   -3.2011 C   0  0  0  0  0  0  0  0  0  0  0  0
   17.4287   70.9184   -4.1550 O   0  0  0  0  0  0  0  0  0  0  0  0
   18.7323   69.3335   -1.9687 O   0  0  0  0  0  0  0  0  0  0  0  0
   20.3352   68.8197   -4.1141 O   0  0  0  0  0  0  0  0  0  0  0  0
   19.2342   70.4569   -2.6929 C   0  0  1  0  0  0  0  0  0  0  0  0
   19.6294   70.0428   -4.0946 C   0  0  2  0  0  0  0  0  0  0  0  0
   18.0713   71.4037   -2.9563 C   0  0  1  0  0  0  0  0  0  0  0  0
   18.2810   69.9510   -4.7883 C   0  0  2  0  0  0  0  0  0  0  0  0
   19.4574   68.7142   -1.7886 H   0  0  0  0  0  0  0  0  0  0  0  0
   21.1862   68.9303   -3.6607 H   0  0  0  0  0  0  0  0  0  0  0  0
   16.1254   69.7214   -6.5986 O   0  0  0  0  0  0  0  0  0  0  0  0
   18.7162   71.1207  -10.1446 O   0  0  0  0  0  0  0  0  0  0  0  0
   18.3645   70.2489   -6.1901 N   0  0  0  0  0  0  0  0  0  0  0  0
   17.4181   70.4176   -8.3632 N   0  0  0  0  0  0  0  0  0  0  0  0
   17.2227   70.1003   -7.0125 C   0  0  0  0  0  0  0  0  0  0  0  0
   19.5658   70.6842   -6.7363 C   0  0  0  0  0  0  0  0  0  0  0  0
   19.7366   70.9830   -8.0256 C   0  0  0  0  0  0  0  0  0  0  0  0
   18.5935   70.8537   -8.9530 C   0  0  0  0  0  0  0  0  0  0  0  0
   16.6380   70.3199   -8.9558 H   0  0  0  0  0  0  0  0  0  0  0  0
   18.7135   73.6819   -0.2089 O   0  0  0  0  0  0  0  0  0  0  0  0
   20.1758   73.2710    0.3449 P   0  0  2  0  0  0  0  0  0  0  0  0
   19.8897   71.9066    1.1676 O   0  0  0  0  0  0  0  0  0  0  0  0
   20.8553   74.3445    1.1448 O   0  0  0  0  0  0  0  0  0  0  0  0
   20.9899   72.7944   -0.9637 O   0  0  0  0  0  0  0  0  0  0  0  0
   23.2502   72.2055   -0.5719 O   0  0  0  0  0  0  0  0  0  0  0  0
   23.1008   72.2663   -4.7000 O   0  0  0  0  0  0  0  0  0  0  0  0
   21.7660   74.3439   -3.1391 O   0  0  0  0  0  0  0  0  0  0  0  0
   23.1376   69.7308   -3.2785 O   0  0  0  0  0  0  0  0  0  0  0  0
   22.5913   72.0752   -3.3803 C   0  0  2  0  0  0  0  0  0  0  0  0
   22.6756   73.3896   -2.6038 C   0  0  2  0  0  0  0  0  0  0  0  0
   23.4379   70.9985   -2.6978 C   0  0  1  0  0  0  0  0  0  0  0  0
   22.3560   73.1723   -1.1241 C   0  0  1  0  0  0  0  0  0  0  0  0
   23.1505   70.9297   -1.2007 C   0  0  1  0  0  0  0  0  0  0  0  0
   22.5781   72.9465   -5.1533 H   0  0  0  0  0  0  0  0  0  0  0  0
   21.9629   74.4864   -4.0779 H   0  0  0  0  0  0  0  0  0  0  0  0
   23.3162   69.7612   -4.2314 H   0  0  0  0  0  0  0  0  0  0  0  0
   25.1523   69.7185   -1.3659 O   0  0  0  0  0  0  0  0  0  0  0  0
   24.1948   69.8687    0.6980 O   0  0  0  0  0  0  0  0  0  0  0  0
   24.1947   70.1260   -0.4965 C   0  0  0  0  0  0  0  0  0  0  0  0
  1  4  1  0
  1 24  1  0
  1  2  1  1
  1  3  2  0
 25 28  1  0
 25 24  1  0
 25 26  1  1
 25 27  2  0
  6 11  1  0
  6 12  1  0
 29 36  1  0
 29 37  1  0
  9  7  1  1
  7 13  1  0
 10  8  1  1
  8 14  1  0
  4  5  1  0
 36 28  1  6
 33 30  1  6
 30 38  1  0
 34 31  1  6
 31 39  1  0
 35 32  1  6
 32 40  1  0
 41 43  1  0
 15 19  2  0
 42 43  2  0
 16 22  2  0
 12 17  1  6
 17 19  1  0
 17 20  1  0
 18 19  1  0
 18 22  1  0
 18 23  1  0
  9 10  1  0
  9 11  1  0
 10 12  1  0
 11  5  1  6
 33 34  1  0
 33 35  1  0
 34 36  1  0
 35 37  1  0
 37 43  1  1
 20 21  2  0
 21 22  1  0
M  CHG  3   2  -1  26  -1  41  -1
M  END
>  <COMPND>  (147) 
    udp_gluA.pdb 

>  <AUTHOR>  (147) 
    GENERATED BY OPEN BABEL 3.1.1

>  <MASTER>  (147) 
        0    0    0    0    0    0    0    0   56    0   56    0

>  <minimizedAffinity>  (147) 
-8.05311

>  <CNNscore>  (147) 
0.3654620647

>  <CNNaffinity>  (147) 
4.4114828110

>  <CNN_VS>  (147) 
1.6122295856

>  <CNNaffinity_variance>  (147) 
0.2335251123

$$$$
148
     RDKit          3D

 43 45  0  0  0  0  0  0  0  0999 V2000
   18.4858   75.1671   -4.4902 P   0  0  2  0  0  0  0  0  0  0  0  0
   16.9798   75.7591   -4.5100 O   0  0  0  0  0  0  0  0  0  0  0  0
   19.4958   76.0283   -3.7902 O   0  0  0  0  0  0  0  0  0  0  0  0
   18.7961   74.8424   -6.0446 O   0  0  0  0  0  0  0  0  0  0  0  0
   18.1227   73.7574   -6.6561 C   0  0  0  0  0  0  0  0  0  0  0  0
   19.5277   71.8339   -6.3342 O   0  0  0  0  0  0  0  0  0  0  0  0
   19.7100   71.6982   -9.3241 O   0  0  0  0  0  0  0  0  0  0  0  0
   17.8676   69.7712   -8.7515 O   0  0  0  0  0  0  0  0  0  0  0  0
   18.6048   72.0748   -8.5024 C   0  0  1  0  0  0  0  0  0  0  0  0
   17.9954   70.8515   -7.8509 C   0  0  2  0  0  0  0  0  0  0  0  0
   19.1500   72.8367   -7.3022 C   0  0  1  0  0  0  0  0  0  0  0  0
   18.9817   70.5660   -6.7313 C   0  0  2  0  0  0  0  0  0  0  0  0
   19.3866   71.2099  -10.0978 H   0  0  0  0  0  0  0  0  0  0  0  0
   17.2289   70.0021   -9.4449 H   0  0  0  0  0  0  0  0  0  0  0  0
   20.3782   69.5898   -4.4789 O   0  0  0  0  0  0  0  0  0  0  0  0
   16.4833   68.2209   -2.4295 O   0  0  0  0  0  0  0  0  0  0  0  0
   18.3574   69.9498   -5.5949 N   0  0  0  0  0  0  0  0  0  0  0  0
   18.4370   68.9081   -3.4608 N   0  0  0  0  0  0  0  0  0  0  0  0
   19.1500   69.4933   -4.5154 C   0  0  0  0  0  0  0  0  0  0  0  0
   16.9760   69.8045   -5.5564 C   0  0  0  0  0  0  0  0  0  0  0  0
   16.3106   69.2447   -4.5442 C   0  0  0  0  0  0  0  0  0  0  0  0
   17.0642   68.7407   -3.3774 C   0  0  0  0  0  0  0  0  0  0  0  0
   18.9675   68.5807   -2.6987 H   0  0  0  0  0  0  0  0  0  0  0  0
   18.2899   73.6984   -3.8442 O   0  0  0  0  0  0  0  0  0  0  0  0
   18.7873   73.0842   -2.4339 P   0  0  2  0  0  0  0  0  0  0  0  0
   17.9262   71.7200   -2.3003 O   0  0  0  0  0  0  0  0  0  0  0  0
   18.6454   74.0215   -1.2697 O   0  0  0  0  0  0  0  0  0  0  0  0
   20.2965   72.5874   -2.7133 O   0  0  0  0  0  0  0  0  0  0  0  0
   21.9725   72.5307   -1.0409 O   0  0  0  0  0  0  0  0  0  0  0  0
   24.2355   72.6503   -4.4953 O   0  0  0  0  0  0  0  0  0  0  0  0
   21.8568   74.3245   -4.2246 O   0  0  0  0  0  0  0  0  0  0  0  0
   23.9533   70.1606   -3.0212 O   0  0  0  0  0  0  0  0  0  0  0  0
   23.1068   72.3157   -3.6877 C   0  0  2  0  0  0  0  0  0  0  0  0
   22.4574   73.5954   -3.1604 C   0  0  2  0  0  0  0  0  0  0  0  0
   23.5972   71.4497   -2.5252 C   0  0  1  0  0  0  0  0  0  0  0  0
   21.3913   73.2759   -2.1116 C   0  0  1  0  0  0  0  0  0  0  0  0
   22.5163   71.2814   -1.4612 C   0  0  1  0  0  0  0  0  0  0  0  0
   23.9481   73.2007   -5.2407 H   0  0  0  0  0  0  0  0  0  0  0  0
   22.5276   74.5304   -4.8939 H   0  0  0  0  0  0  0  0  0  0  0  0
   24.6405   70.2536   -3.6994 H   0  0  0  0  0  0  0  0  0  0  0  0
   22.5299   71.3122    0.8841 O   0  0  0  0  0  0  0  0  0  0  0  0
   23.9565   69.8616   -0.1453 O   0  0  0  0  0  0  0  0  0  0  0  0
   23.0948   70.7262   -0.2005 C   0  0  0  0  0  0  0  0  0  0  0  0
  1  4  1  0
  1 24  1  0
  1  2  1  6
  1  3  2  0
 25 28  1  0
 25 24  1  0
 25 26  1  1
 25 27  2  0
  6 11  1  0
  6 12  1  0
 29 36  1  0
 29 37  1  0
  9  7  1  6
  7 13  1  0
 10  8  1  6
  8 14  1  0
  4  5  1  0
 36 28  1  6
 33 30  1  6
 30 38  1  0
 34 31  1  6
 31 39  1  0
 35 32  1  6
 32 40  1  0
 41 43  1  0
 15 19  2  0
 42 43  2  0
 16 22  2  0
 12 17  1  1
 17 19  1  0
 17 20  1  0
 18 19  1  0
 18 22  1  0
 18 23  1  0
  9 10  1  0
  9 11  1  0
 10 12  1  0
 11  5  1  1
 33 34  1  0
 33 35  1  0
 34 36  1  0
 35 37  1  0
 37 43  1  1
 20 21  2  0
 21 22  1  0
M  CHG  3   2  -1  26  -1  41  -1
M  END
>  <COMPND>  (148) 
    udp_gluA.pdb 

>  <AUTHOR>  (148) 
    GENERATED BY OPEN BABEL 3.1.1

>  <MASTER>  (148) 
        0    0    0    0    0    0    0    0   56    0   56    0

>  <minimizedAffinity>  (148) 
-7.41097

>  <CNNscore>  (148) 
0.3545840085

>  <CNNaffinity>  (148) 
4.1355147362

>  <CNN_VS>  (148) 
1.4663873911

>  <CNNaffinity_variance>  (148) 
0.5541169047

$$$$
149
     RDKit          3D

 43 45  0  0  0  0  0  0  0  0999 V2000
   20.0964   74.7670   -4.8147 P   0  0  2  0  0  0  0  0  0  0  0  0
   19.1217   73.6170   -4.2262 O   0  0  0  0  0  0  0  0  0  0  0  0
   20.2194   75.9927   -3.9577 O   0  0  0  0  0  0  0  0  0  0  0  0
   19.5459   75.0120   -6.3163 O   0  0  0  0  0  0  0  0  0  0  0  0
   18.3819   74.3208   -6.7308 C   0  0  0  0  0  0  0  0  0  0  0  0
   19.2565   72.1237   -7.1612 O   0  0  0  0  0  0  0  0  0  0  0  0
   18.0828   72.3970   -9.9069 O   0  0  0  0  0  0  0  0  0  0  0  0
   16.2548   70.8265   -8.6311 O   0  0  0  0  0  0  0  0  0  0  0  0
   17.5771   72.8668   -8.6571 C   0  0  1  0  0  0  0  0  0  0  0  0
   17.0264   71.7123   -7.8472 C   0  0  2  0  0  0  0  0  0  0  0  0
   18.7603   73.3145   -7.8100 C   0  0  1  0  0  0  0  0  0  0  0  0
   18.2946   71.0679   -7.3139 C   0  0  2  0  0  0  0  0  0  0  0  0
   17.3450   72.1053  -10.4656 H   0  0  0  0  0  0  0  0  0  0  0  0
   15.4588   71.2835   -8.9466 H   0  0  0  0  0  0  0  0  0  0  0  0
   20.3445   70.5764   -5.4344 O   0  0  0  0  0  0  0  0  0  0  0  0
   17.4072   68.6215   -2.4688 O   0  0  0  0  0  0  0  0  0  0  0  0
   18.0934   70.4321   -6.0426 N   0  0  0  0  0  0  0  0  0  0  0  0
   18.8798   69.6023   -3.9596 N   0  0  0  0  0  0  0  0  0  0  0  0
   19.1906   70.2323   -5.1718 C   0  0  0  0  0  0  0  0  0  0  0  0
   16.8214   70.0156   -5.6690 C   0  0  0  0  0  0  0  0  0  0  0  0
   16.5407   69.4165   -4.5101 C   0  0  0  0  0  0  0  0  0  0  0  0
   17.6310   69.1696   -3.5438 C   0  0  0  0  0  0  0  0  0  0  0  0
   19.6278   69.4505   -3.3377 H   0  0  0  0  0  0  0  0  0  0  0  0
   21.4841   73.9756   -5.0610 O   0  0  0  0  0  0  0  0  0  0  0  0
   22.6310   73.4970   -4.0270 P   0  0  2  0  0  0  0  0  0  0  0  0
   22.9958   74.8548   -3.2249 O   0  0  0  0  0  0  0  0  0  0  0  0
   23.8070   72.8284   -4.6781 O   0  0  0  0  0  0  0  0  0  0  0  0
   21.8541   72.5831   -2.9482 O   0  0  0  0  0  0  0  0  0  0  0  0
   22.8002   72.4187   -0.7833 O   0  0  0  0  0  0  0  0  0  0  0  0
   20.0347   69.3501   -0.7274 O   0  0  0  0  0  0  0  0  0  0  0  0
   21.6883   69.8104   -3.0913 O   0  0  0  0  0  0  0  0  0  0  0  0
   19.4893   71.8318    0.6849 O   0  0  0  0  0  0  0  0  0  0  0  0
   20.5616   70.6228   -1.1022 C   0  0  2  0  0  0  0  0  0  0  0  0
   21.8937   70.4316   -1.8278 C   0  0  2  0  0  0  0  0  0  0  0  0
   20.7631   71.4452    0.1726 C   0  0  1  0  0  0  0  0  0  0  0  0
   22.5981   71.7723   -2.0406 C   0  0  1  0  0  0  0  0  0  0  0  0
   21.5817   72.7038   -0.1000 C   0  0  1  0  0  0  0  0  0  0  0  0
   19.8984   68.8097   -1.5216 H   0  0  0  0  0  0  0  0  0  0  0  0
   21.2414   68.9592   -2.9638 H   0  0  0  0  0  0  0  0  0  0  0  0
   18.9583   71.0398    0.8625 H   0  0  0  0  0  0  0  0  0  0  0  0
   21.7843   72.5030    2.2281 O   0  0  0  0  0  0  0  0  0  0  0  0
   22.5996   74.4064    1.2735 O   0  0  0  0  0  0  0  0  0  0  0  0
   22.0500   73.3193    1.1783 C   0  0  0  0  0  0  0  0  0  0  0  0
  1  4  1  0
  1 24  1  0
  1  2  1  1
  1  3  2  0
 25 28  1  0
 25 24  1  0
 25 26  1  1
 25 27  2  0
  6 11  1  0
  6 12  1  0
 29 36  1  0
 29 37  1  0
  9  7  1  6
  7 13  1  0
 10  8  1  6
  8 14  1  0
  4  5  1  0
 36 28  1  6
 33 30  1  1
 30 38  1  0
 34 31  1  6
 31 39  1  0
 35 32  1  6
 32 40  1  0
 41 43  1  0
 15 19  2  0
 42 43  2  0
 16 22  2  0
 12 17  1  1
 17 19  1  0
 17 20  1  0
 18 19  1  0
 18 22  1  0
 18 23  1  0
  9 10  1  0
  9 11  1  0
 10 12  1  0
 11  5  1  1
 33 34  1  0
 33 35  1  0
 34 36  1  0
 35 37  1  0
 37 43  1  1
 20 21  2  0
 21 22  1  0
M  CHG  3   2  -1  26  -1  41  -1
M  END
>  <COMPND>  (149) 
    udp_gluA.pdb 

>  <AUTHOR>  (149) 
    GENERATED BY OPEN BABEL 3.1.1

>  <MASTER>  (149) 
        0    0    0    0    0    0    0    0   56    0   56    0

>  <minimizedAffinity>  (149) 
-7.97447

>  <CNNscore>  (149) 
0.3540087044

>  <CNNaffinity>  (149) 
4.0563302040

>  <CNN_VS>  (149) 
1.4359761477

>  <CNNaffinity_variance>  (149) 
0.6841413975

$$$$
150
     RDKit          3D

 43 45  0  0  0  0  0  0  0  0999 V2000
   20.2470   74.3882   -3.0001 P   0  0  2  0  0  0  0  0  0  0  0  0
   21.7612   74.9126   -3.2262 O   0  0  0  0  0  0  0  0  0  0  0  0
   19.2972   75.4122   -2.4513 O   0  0  0  0  0  0  0  0  0  0  0  0
   20.4283   73.0495   -2.1097 O   0  0  0  0  0  0  0  0  0  0  0  0
   21.5885   72.9225   -1.3083 C   0  0  0  0  0  0  0  0  0  0  0  0
   22.2017   72.8053    1.0129 O   0  0  0  0  0  0  0  0  0  0  0  0
   19.3362   72.0981    1.5422 O   0  0  0  0  0  0  0  0  0  0  0  0
   19.4314   74.7398    2.2116 O   0  0  0  0  0  0  0  0  0  0  0  0
   19.8815   72.9974    0.5766 C   0  0  1  0  0  0  0  0  0  0  0  0
   20.3532   74.2680    1.2513 C   0  0  2  0  0  0  0  0  0  0  0  0
   21.1875   72.4037    0.0666 C   0  0  1  0  0  0  0  0  0  0  0  0
   21.6684   73.8267    1.8705 C   0  0  2  0  0  0  0  0  0  0  0  0
   18.5009   72.4561    1.8825 H   0  0  0  0  0  0  0  0  0  0  0  0
   18.6112   75.0085    1.7678 H   0  0  0  0  0  0  0  0  0  0  0  0
   22.8788   74.6794    4.2755 O   0  0  0  0  0  0  0  0  0  0  0  0
   25.2945   77.9547    2.1120 O   0  0  0  0  0  0  0  0  0  0  0  0
   22.6172   74.8999    1.9644 N   0  0  0  0  0  0  0  0  0  0  0  0
   24.0801   76.3106    3.1958 N   0  0  0  0  0  0  0  0  0  0  0  0
   23.1659   75.2491    3.2210 C   0  0  0  0  0  0  0  0  0  0  0  0
   22.9963   75.5926    0.8209 C   0  0  0  0  0  0  0  0  0  0  0  0
   23.8689   76.6021    0.8127 C   0  0  0  0  0  0  0  0  0  0  0  0
   24.4878   77.0302    2.0843 C   0  0  0  0  0  0  0  0  0  0  0  0
   24.4739   76.5732    4.0591 H   0  0  0  0  0  0  0  0  0  0  0  0
   19.8437   73.8063   -4.4532 O   0  0  0  0  0  0  0  0  0  0  0  0
   20.7566   73.3938   -5.7221 P   0  0  2  0  0  0  0  0  0  0  0  0
   21.7845   72.3084   -5.1010 O   0  0  0  0  0  0  0  0  0  0  0  0
   21.4207   74.5537   -6.4059 O   0  0  0  0  0  0  0  0  0  0  0  0
   19.7759   72.5307   -6.6686 O   0  0  0  0  0  0  0  0  0  0  0  0
   19.3270   70.3451   -5.8745 O   0  0  0  0  0  0  0  0  0  0  0  0
   17.7013   70.2110   -9.6702 O   0  0  0  0  0  0  0  0  0  0  0  0
   20.2764   71.5105   -9.2072 O   0  0  0  0  0  0  0  0  0  0  0  0
   15.9677   70.4349   -7.3474 O   0  0  0  0  0  0  0  0  0  0  0  0
   18.0821   70.8198   -8.4364 C   0  0  2  0  0  0  0  0  0  0  0  0
   19.5956   70.7030   -8.2538 C   0  0  2  0  0  0  0  0  0  0  0  0
   17.3518   70.0929   -7.3050 C   0  0  1  0  0  0  0  0  0  0  0  0
   20.0118   71.1353   -6.8471 C   0  0  1  0  0  0  0  0  0  0  0  0
   17.9095   70.4847   -5.9398 C   0  0  1  0  0  0  0  0  0  0  0  0
   18.1533   70.6566  -10.4040 H   0  0  0  0  0  0  0  0  0  0  0  0
   20.0168   71.2418  -10.1021 H   0  0  0  0  0  0  0  0  0  0  0  0
   15.6006   70.1908   -8.2114 H   0  0  0  0  0  0  0  0  0  0  0  0
   16.1115   69.7361   -4.6328 O   0  0  0  0  0  0  0  0  0  0  0  0
   18.1248   68.7139   -4.3152 O   0  0  0  0  0  0  0  0  0  0  0  0
   17.4307   69.5448   -4.8816 C   0  0  0  0  0  0  0  0  0  0  0  0
  1  4  1  0
  1 24  1  0
  1  2  1  6
  1  3  2  0
 25 28  1  0
 25 24  1  0
 25 26  1  1
 25 27  2  0
  6 11  1  0
  6 12  1  0
 29 36  1  0
 29 37  1  0
  9  7  1  1
  7 13  1  0
 10  8  1  1
  8 14  1  0
  4  5  1  0
 36 28  1  1
 33 30  1  6
 30 38  1  0
 34 31  1  6
 31 39  1  0
 35 32  1  1
 32 40  1  0
 41 43  1  0
 15 19  2  0
 42 43  2  0
 16 22  2  0
 12 17  1  6
 17 19  1  0
 17 20  1  0
 18 19  1  0
 18 22  1  0
 18 23  1  0
  9 10  1  0
  9 11  1  0
 10 12  1  0
 11  5  1  6
 33 34  1  0
 33 35  1  0
 34 36  1  0
 35 37  1  0
 37 43  1  1
 20 21  2  0
 21 22  1  0
M  CHG  3   2  -1  26  -1  41  -1
M  END
>  <COMPND>  (150) 
    udp_gluA.pdb 

>  <AUTHOR>  (150) 
    GENERATED BY OPEN BABEL 3.1.1

>  <MASTER>  (150) 
        0    0    0    0    0    0    0    0   56    0   56    0

>  <minimizedAffinity>  (150) 
-7.16377

>  <CNNscore>  (150) 
0.3498077691

>  <CNNaffinity>  (150) 
4.0417361259

>  <CNN_VS>  (150) 
1.4138306379

>  <CNNaffinity_variance>  (150) 
0.0749125704

$$$$
151
     RDKit          3D

 43 45  0  0  0  0  0  0  0  0999 V2000
   20.3938   74.7520   -2.8394 P   0  0  2  0  0  0  0  0  0  0  0  0
   21.8222   74.6924   -2.0810 O   0  0  0  0  0  0  0  0  0  0  0  0
   20.3256   75.7164   -3.9871 O   0  0  0  0  0  0  0  0  0  0  0  0
   19.3305   75.0036   -1.6461 O   0  0  0  0  0  0  0  0  0  0  0  0
   19.8238   75.2916   -0.3506 C   0  0  0  0  0  0  0  0  0  0  0  0
   19.4169   72.9713    0.1273 O   0  0  0  0  0  0  0  0  0  0  0  0
   18.9675   73.8268    2.9659 O   0  0  0  0  0  0  0  0  0  0  0  0
   21.5065   72.8349    3.0375 O   0  0  0  0  0  0  0  0  0  0  0  0
   19.8941   74.3338    2.0053 C   0  0  1  0  0  0  0  0  0  0  0  0
   21.0361   73.3585    1.8131 C   0  0  2  0  0  0  0  0  0  0  0  0
   19.2186   74.3063    0.6410 C   0  0  1  0  0  0  0  0  0  0  0  0
   20.4004   72.2987    0.9296 C   0  0  2  0  0  0  0  0  0  0  0  0
   19.3767   73.8346    3.8458 H   0  0  0  0  0  0  0  0  0  0  0  0
   21.9022   73.5482    3.5634 H   0  0  0  0  0  0  0  0  0  0  0  0
   19.9013   69.9303   -0.5258 O   0  0  0  0  0  0  0  0  0  0  0  0
   24.1301   69.9488   -2.3589 O   0  0  0  0  0  0  0  0  0  0  0  0
   21.3533   71.6629    0.0644 N   0  0  0  0  0  0  0  0  0  0  0  0
   22.0083   69.9412   -1.4366 N   0  0  0  0  0  0  0  0  0  0  0  0
   21.0023   70.4757   -0.6209 C   0  0  0  0  0  0  0  0  0  0  0  0
   22.6177   72.2154   -0.0998 C   0  0  0  0  0  0  0  0  0  0  0  0
   23.5660   71.6945   -0.8809 C   0  0  0  0  0  0  0  0  0  0  0  0
   23.2806   70.4540   -1.6314 C   0  0  0  0  0  0  0  0  0  0  0  0
   21.7881   69.1136   -1.9223 H   0  0  0  0  0  0  0  0  0  0  0  0
   20.1312   73.2083   -3.2405 O   0  0  0  0  0  0  0  0  0  0  0  0
   20.6591   72.3325   -4.4927 P   0  0  2  0  0  0  0  0  0  0  0  0
   20.6292   70.8175   -3.9232 O   0  0  0  0  0  0  0  0  0  0  0  0
   21.9930   72.7655   -5.0284 O   0  0  0  0  0  0  0  0  0  0  0  0
   19.4565   72.3876   -5.5666 O   0  0  0  0  0  0  0  0  0  0  0  0
   19.7096   71.9804   -7.8859 O   0  0  0  0  0  0  0  0  0  0  0  0
   16.2995   74.3113   -7.8089 O   0  0  0  0  0  0  0  0  0  0  0  0
   18.5832   74.9716   -6.1110 O   0  0  0  0  0  0  0  0  0  0  0  0
   16.0979   71.4446   -8.2474 O   0  0  0  0  0  0  0  0  0  0  0  0
   17.2343   73.3528   -7.3135 C   0  0  2  0  0  0  0  0  0  0  0  0
   18.6065   74.0090   -7.1586 C   0  0  2  0  0  0  0  0  0  0  0  0
   17.3060   72.1996   -8.3170 C   0  0  1  0  0  0  0  0  0  0  0  0
   19.6808   72.9647   -6.8516 C   0  0  1  0  0  0  0  0  0  0  0  0
   18.4793   71.2715   -8.0162 C   0  0  1  0  0  0  0  0  0  0  0  0
   16.2372   75.0536   -7.1874 H   0  0  0  0  0  0  0  0  0  0  0  0
   17.9035   75.6372   -6.2991 H   0  0  0  0  0  0  0  0  0  0  0  0
   15.3432   72.0237   -8.4367 H   0  0  0  0  0  0  0  0  0  0  0  0
   17.7848   69.3962   -9.2418 O   0  0  0  0  0  0  0  0  0  0  0  0
   19.6802   70.4526   -9.9420 O   0  0  0  0  0  0  0  0  0  0  0  0
   18.7400   70.3558   -9.1677 C   0  0  0  0  0  0  0  0  0  0  0  0
  1  4  1  0
  1 24  1  0
  1  2  1  1
  1  3  2  0
 25 28  1  0
 25 24  1  0
 25 26  1  1
 25 27  2  0
  6 11  1  0
  6 12  1  0
 29 36  1  0
 29 37  1  0
  9  7  1  1
  7 13  1  0
 10  8  1  1
  8 14  1  0
  4  5  1  0
 36 28  1  1
 33 30  1  6
 30 38  1  0
 34 31  1  1
 31 39  1  0
 35 32  1  1
 32 40  1  0
 41 43  1  0
 15 19  2  0
 42 43  2  0
 16 22  2  0
 12 17  1  6
 17 19  1  0
 17 20  1  0
 18 19  1  0
 18 22  1  0
 18 23  1  0
  9 10  1  0
  9 11  1  0
 10 12  1  0
 11  5  1  6
 33 34  1  0
 33 35  1  0
 34 36  1  0
 35 37  1  0
 37 43  1  6
 20 21  2  0
 21 22  1  0
M  CHG  3   2  -1  26  -1  41  -1
M  END
>  <COMPND>  (151) 
    udp_gluA.pdb 

>  <AUTHOR>  (151) 
    GENERATED BY OPEN BABEL 3.1.1

>  <MASTER>  (151) 
        0    0    0    0    0    0    0    0   56    0   56    0

>  <minimizedAffinity>  (151) 
-7.39592

>  <CNNscore>  (151) 
0.3476941288

>  <CNNaffinity>  (151) 
3.9596393108

>  <CNN_VS>  (151) 
1.3767433167

>  <CNNaffinity_variance>  (151) 
0.3635405600

$$$$
152
     RDKit          3D

 43 45  0  0  0  0  0  0  0  0999 V2000
   20.0147   73.1358   -3.4306 P   0  0  2  0  0  0  0  0  0  0  0  0
   20.6571   74.5476   -2.9690 O   0  0  0  0  0  0  0  0  0  0  0  0
   18.5514   73.1830   -3.7599 O   0  0  0  0  0  0  0  0  0  0  0  0
   20.4366   72.1126   -2.2503 O   0  0  0  0  0  0  0  0  0  0  0  0
   21.1447   70.9364   -2.5962 C   0  0  0  0  0  0  0  0  0  0  0  0
   22.8144   72.4460   -1.7531 O   0  0  0  0  0  0  0  0  0  0  0  0
   24.7395   70.1605   -2.0017 O   0  0  0  0  0  0  0  0  0  0  0  0
   24.1659   70.1691    0.6642 O   0  0  0  0  0  0  0  0  0  0  0  0
   23.3610   70.1445   -1.6301 C   0  0  1  0  0  0  0  0  0  0  0  0
   23.1913   70.6768   -0.2230 C   0  0  2  0  0  0  0  0  0  0  0  0
   22.6389   71.1983   -2.4586 C   0  0  1  0  0  0  0  0  0  0  0  0
   23.3181   72.1757   -0.4353 C   0  0  2  0  0  0  0  0  0  0  0  0
   25.2216   69.4952   -1.4854 H   0  0  0  0  0  0  0  0  0  0  0  0
   24.0427   69.2118    0.7663 H   0  0  0  0  0  0  0  0  0  0  0  0
   23.7009   74.9232    0.0950 O   0  0  0  0  0  0  0  0  0  0  0  0
   20.3400   74.9697    3.2487 O   0  0  0  0  0  0  0  0  0  0  0  0
   22.5570   72.9308    0.5194 N   0  0  0  0  0  0  0  0  0  0  0  0
   22.0273   74.9435    1.6660 N   0  0  0  0  0  0  0  0  0  0  0  0
   22.8291   74.3062    0.7100 C   0  0  0  0  0  0  0  0  0  0  0  0
   21.5535   72.3100    1.2533 C   0  0  0  0  0  0  0  0  0  0  0  0
   20.7975   72.9307    2.1610 C   0  0  0  0  0  0  0  0  0  0  0  0
   21.0180   74.3684    2.4211 C   0  0  0  0  0  0  0  0  0  0  0  0
   22.1996   75.9009    1.8176 H   0  0  0  0  0  0  0  0  0  0  0  0
   20.9669   72.6877   -4.6575 O   0  0  0  0  0  0  0  0  0  0  0  0
   21.0938   73.2570   -6.1653 P   0  0  2  0  0  0  0  0  0  0  0  0
   22.4920   72.6261   -6.6824 O   0  0  0  0  0  0  0  0  0  0  0  0
   21.0150   74.7528   -6.2674 O   0  0  0  0  0  0  0  0  0  0  0  0
   19.9588   72.4685   -6.9974 O   0  0  0  0  0  0  0  0  0  0  0  0
   19.0595   70.4614   -6.1187 O   0  0  0  0  0  0  0  0  0  0  0  0
   17.8987   70.2402  -10.0774 O   0  0  0  0  0  0  0  0  0  0  0  0
   20.5809   71.1564   -9.3697 O   0  0  0  0  0  0  0  0  0  0  0  0
   15.9624   70.9431   -8.0261 O   0  0  0  0  0  0  0  0  0  0  0  0
   18.2260   70.8912   -8.8498 C   0  0  2  0  0  0  0  0  0  0  0  0
   19.6659   70.5555   -8.4606 C   0  0  2  0  0  0  0  0  0  0  0  0
   17.2548   70.3935   -7.7770 C   0  0  1  0  0  0  0  0  0  0  0  0
   19.9778   71.0430   -7.0450 C   0  0  1  0  0  0  0  0  0  0  0  0
   17.7033   70.8152   -6.3807 C   0  0  1  0  0  0  0  0  0  0  0  0
   18.5031   70.5410  -10.7742 H   0  0  0  0  0  0  0  0  0  0  0  0
   20.3886   70.8517  -10.2700 H   0  0  0  0  0  0  0  0  0  0  0  0
   15.6654   70.6822   -8.9119 H   0  0  0  0  0  0  0  0  0  0  0  0
   17.5058   70.2600   -4.1104 O   0  0  0  0  0  0  0  0  0  0  0  0
   15.9703   69.3635   -5.5377 O   0  0  0  0  0  0  0  0  0  0  0  0
   16.9515   70.0619   -5.3320 C   0  0  0  0  0  0  0  0  0  0  0  0
  1  4  1  0
  1 24  1  0
  1  2  1  1
  1  3  2  0
 25 28  1  0
 25 24  1  0
 25 26  1  6
 25 27  2  0
  6 11  1  0
  6 12  1  0
 29 36  1  0
 29 37  1  0
  9  7  1  6
  7 13  1  0
 10  8  1  1
  8 14  1  0
  4  5  1  0
 36 28  1  6
 33 30  1  6
 30 38  1  0
 34 31  1  6
 31 39  1  0
 35 32  1  6
 32 40  1  0
 41 43  1  0
 15 19  2  0
 42 43  2  0
 16 22  2  0
 12 17  1  1
 17 19  1  0
 17 20  1  0
 18 19  1  0
 18 22  1  0
 18 23  1  0
  9 10  1  0
  9 11  1  0
 10 12  1  0
 11  5  1  1
 33 34  1  0
 33 35  1  0
 34 36  1  0
 35 37  1  0
 37 43  1  1
 20 21  2  0
 21 22  1  0
M  CHG  3   2  -1  26  -1  41  -1
M  END
>  <COMPND>  (152) 
    udp_gluA.pdb 

>  <AUTHOR>  (152) 
    GENERATED BY OPEN BABEL 3.1.1

>  <MASTER>  (152) 
        0    0    0    0    0    0    0    0   56    0   56    0

>  <minimizedAffinity>  (152) 
-8.11743

>  <CNNscore>  (152) 
0.3109783828

>  <CNNaffinity>  (152) 
4.0251541138

>  <CNN_VS>  (152) 
1.2517359257

>  <CNNaffinity_variance>  (152) 
0.4190431535

$$$$
153
     RDKit          3D

 43 45  0  0  0  0  0  0  0  0999 V2000
   21.0787   75.8684   -5.8811 P   0  0  2  0  0  0  0  0  0  0  0  0
   19.7760   76.4977   -5.1559 O   0  0  0  0  0  0  0  0  0  0  0  0
   22.1062   76.8707   -6.3188 O   0  0  0  0  0  0  0  0  0  0  0  0
   20.4604   74.9389   -7.0523 O   0  0  0  0  0  0  0  0  0  0  0  0
   19.4916   73.9671   -6.7036 C   0  0  0  0  0  0  0  0  0  0  0  0
   19.3637   71.6718   -7.4055 O   0  0  0  0  0  0  0  0  0  0  0  0
   17.9909   72.6951   -9.8671 O   0  0  0  0  0  0  0  0  0  0  0  0
   15.9096   71.7826   -8.3599 O   0  0  0  0  0  0  0  0  0  0  0  0
   17.9030   73.1654   -8.5219 C   0  0  1  0  0  0  0  0  0  0  0  0
   17.0742   72.2127   -7.6866 C   0  0  2  0  0  0  0  0  0  0  0  0
   19.2801   73.0308   -7.8864 C   0  0  1  0  0  0  0  0  0  0  0  0
   18.0549   71.0805   -7.4332 C   0  0  2  0  0  0  0  0  0  0  0  0
   17.1227   72.7712  -10.2939 H   0  0  0  0  0  0  0  0  0  0  0  0
   15.3175   72.5393   -8.4973 H   0  0  0  0  0  0  0  0  0  0  0  0
   15.6827   69.6869   -6.7953 O   0  0  0  0  0  0  0  0  0  0  0  0
   17.2457   68.5760   -2.6040 O   0  0  0  0  0  0  0  0  0  0  0  0
   17.8154   70.4178   -6.1824 N   0  0  0  0  0  0  0  0  0  0  0  0
   16.4630   69.1358   -4.7081 N   0  0  0  0  0  0  0  0  0  0  0  0
   16.5895   69.7462   -5.9628 C   0  0  0  0  0  0  0  0  0  0  0  0
   18.7885   70.4356   -5.1906 C   0  0  0  0  0  0  0  0  0  0  0  0
   18.6535   69.8491   -3.9996 C   0  0  0  0  0  0  0  0  0  0  0  0
   17.4022   69.1269   -3.6895 C   0  0  0  0  0  0  0  0  0  0  0  0
   15.6173   68.6638   -4.5312 H   0  0  0  0  0  0  0  0  0  0  0  0
   21.6087   74.7883   -4.8017 O   0  0  0  0  0  0  0  0  0  0  0  0
   22.9437   73.8767   -4.7799 P   0  0  2  0  0  0  0  0  0  0  0  0
   24.1355   74.9682   -4.6870 O   0  0  0  0  0  0  0  0  0  0  0  0
   23.0616   72.9295   -5.9387 O   0  0  0  0  0  0  0  0  0  0  0  0
   22.9297   73.1650   -3.3322 O   0  0  0  0  0  0  0  0  0  0  0  0
   23.0780   70.9620   -2.4754 O   0  0  0  0  0  0  0  0  0  0  0  0
   19.9685   72.5229   -0.2477 O   0  0  0  0  0  0  0  0  0  0  0  0
   20.1588   73.0692   -3.1113 O   0  0  0  0  0  0  0  0  0  0  0  0
   22.5987   72.1960    0.9465 O   0  0  0  0  0  0  0  0  0  0  0  0
   21.1948   72.5585   -0.9777 C   0  0  2  0  0  0  0  0  0  0  0  0
   20.9465   72.1085   -2.4176 C   0  0  2  0  0  0  0  0  0  0  0  0
   22.1832   71.6153   -0.2882 C   0  0  1  0  0  0  0  0  0  0  0  0
   22.2663   71.9133   -3.1651 C   0  0  1  0  0  0  0  0  0  0  0  0
   23.4170   71.3724   -1.1527 C   0  0  1  0  0  0  0  0  0  0  0  0
   19.3247   73.1149   -0.6676 H   0  0  0  0  0  0  0  0  0  0  0  0
   19.3199   73.1982   -2.6423 H   0  0  0  0  0  0  0  0  0  0  0  0
   21.8226   72.3558    1.5060 H   0  0  0  0  0  0  0  0  0  0  0  0
   25.0801   69.7731   -1.5745 O   0  0  0  0  0  0  0  0  0  0  0  0
   24.0935   69.7306    0.4808 O   0  0  0  0  0  0  0  0  0  0  0  0
   24.2081   70.2156   -0.6348 C   0  0  0  0  0  0  0  0  0  0  0  0
  1  4  1  0
  1 24  1  0
  1  2  1  1
  1  3  2  0
 25 28  1  0
 25 24  1  0
 25 26  1  1
 25 27  2  0
  6 11  1  0
  6 12  1  0
 29 36  1  0
 29 37  1  0
  9  7  1  6
  7 13  1  0
 10  8  1  6
  8 14  1  0
  4  5  1  0
 36 28  1  1
 33 30  1  1
 30 38  1  0
 34 31  1  6
 31 39  1  0
 35 32  1  1
 32 40  1  0
 41 43  1  0
 15 19  2  0
 42 43  2  0
 16 22  2  0
 12 17  1  1
 17 19  1  0
 17 20  1  0
 18 19  1  0
 18 22  1  0
 18 23  1  0
  9 10  1  0
  9 11  1  0
 10 12  1  0
 11  5  1  1
 33 34  1  0
 33 35  1  0
 34 36  1  0
 35 37  1  0
 37 43  1  1
 20 21  2  0
 21 22  1  0
M  CHG  3   2  -1  26  -1  41  -1
M  END
>  <COMPND>  (153) 
    udp_gluA.pdb 

>  <AUTHOR>  (153) 
    GENERATED BY OPEN BABEL 3.1.1

>  <MASTER>  (153) 
        0    0    0    0    0    0    0    0   56    0   56    0

>  <minimizedAffinity>  (153) 
-7.43750

>  <CNNscore>  (153) 
0.3075858653

>  <CNNaffinity>  (153) 
4.1651239395

>  <CNN_VS>  (153) 
1.2811332941

>  <CNNaffinity_variance>  (153) 
0.3274214268

$$$$
154
     RDKit          3D

 43 45  0  0  0  0  0  0  0  0999 V2000
   23.0786   70.7439   -2.6179 P   0  0  2  0  0  0  0  0  0  0  0  0
   24.4633   70.2226   -1.9625 O   0  0  0  0  0  0  0  0  0  0  0  0
   22.1165   69.6612   -3.0105 O   0  0  0  0  0  0  0  0  0  0  0  0
   23.5588   71.7240   -3.8123 O   0  0  0  0  0  0  0  0  0  0  0  0
   23.0080   73.0265   -3.8808 C   0  0  0  0  0  0  0  0  0  0  0  0
   21.6007   72.1113   -5.6010 O   0  0  0  0  0  0  0  0  0  0  0  0
   21.4803   74.8898   -6.7220 O   0  0  0  0  0  0  0  0  0  0  0  0
   19.0977   74.6714   -5.4137 O   0  0  0  0  0  0  0  0  0  0  0  0
   21.5199   74.4662   -5.3591 C   0  0  1  0  0  0  0  0  0  0  0  0
   20.1802   73.8921   -4.9495 C   0  0  2  0  0  0  0  0  0  0  0  0
   22.4287   73.2477   -5.2721 C   0  0  1  0  0  0  0  0  0  0  0  0
   20.2214   72.5121   -5.5834 C   0  0  2  0  0  0  0  0  0  0  0  0
   20.9055   75.6675   -6.8026 H   0  0  0  0  0  0  0  0  0  0  0  0
   19.1154   75.5398   -4.9807 H   0  0  0  0  0  0  0  0  0  0  0  0
   18.9330   70.2747   -6.7284 O   0  0  0  0  0  0  0  0  0  0  0  0
   17.3419   68.8681   -2.6377 O   0  0  0  0  0  0  0  0  0  0  0  0
   19.4636   71.5451   -4.8407 N   0  0  0  0  0  0  0  0  0  0  0  0
   18.1409   69.5768   -4.6900 N   0  0  0  0  0  0  0  0  0  0  0  0
   18.8560   70.4578   -5.5120 C   0  0  0  0  0  0  0  0  0  0  0  0
   19.3298   71.6777   -3.4640 C   0  0  0  0  0  0  0  0  0  0  0  0
   18.6451   70.8298   -2.6938 C   0  0  0  0  0  0  0  0  0  0  0  0
   17.9790   69.6673   -3.3170 C   0  0  0  0  0  0  0  0  0  0  0  0
   17.7073   68.8131   -5.1351 H   0  0  0  0  0  0  0  0  0  0  0  0
   22.5161   71.7740   -1.5064 O   0  0  0  0  0  0  0  0  0  0  0  0
   21.8239   71.5110   -0.0693 P   0  0  2  0  0  0  0  0  0  0  0  0
   23.0604   71.0191    0.8523 O   0  0  0  0  0  0  0  0  0  0  0  0
   20.6649   70.5575   -0.1093 O   0  0  0  0  0  0  0  0  0  0  0  0
   21.4620   72.9817    0.4860 O   0  0  0  0  0  0  0  0  0  0  0  0
   22.5670   75.0579    0.2072 O   0  0  0  0  0  0  0  0  0  0  0  0
   21.0233   75.4325    4.0210 O   0  0  0  0  0  0  0  0  0  0  0  0
   22.2395   72.9212    3.1558 O   0  0  0  0  0  0  0  0  0  0  0  0
   19.7733   76.8268    1.7974 O   0  0  0  0  0  0  0  0  0  0  0  0
   21.0560   74.9818    2.6668 C   0  0  2  0  0  0  0  0  0  0  0  0
   22.3153   74.1462    2.4358 C   0  0  2  0  0  0  0  0  0  0  0  0
   21.0605   76.2135    1.7585 C   0  0  1  0  0  0  0  0  0  0  0  0
   22.5033   73.8394    0.9494 C   0  0  1  0  0  0  0  0  0  0  0  0
   21.3790   75.8391    0.3139 C   0  0  1  0  0  0  0  0  0  0  0  0
   21.0200   74.6668    4.6168 H   0  0  0  0  0  0  0  0  0  0  0  0
   22.1199   73.1083    4.0997 H   0  0  0  0  0  0  0  0  0  0  0  0
   19.5584   77.0698    2.7115 H   0  0  0  0  0  0  0  0  0  0  0  0
   22.0459   76.7149   -1.7573 O   0  0  0  0  0  0  0  0  0  0  0  0
   21.6675   78.2033   -0.0719 O   0  0  0  0  0  0  0  0  0  0  0  0
   21.7042   77.0557   -0.4900 C   0  0  0  0  0  0  0  0  0  0  0  0
  1  4  1  0
  1 24  1  0
  1  2  1  1
  1  3  2  0
 25 28  1  0
 25 24  1  0
 25 26  1  1
 25 27  2  0
  6 11  1  0
  6 12  1  0
 29 36  1  0
 29 37  1  0
  9  7  1  6
  7 13  1  0
 10  8  1  6
  8 14  1  0
  4  5  1  0
 36 28  1  6
 33 30  1  1
 30 38  1  0
 34 31  1  1
 31 39  1  0
 35 32  1  6
 32 40  1  0
 41 43  1  0
 15 19  2  0
 42 43  2  0
 16 22  2  0
 12 17  1  1
 17 19  1  0
 17 20  1  0
 18 19  1  0
 18 22  1  0
 18 23  1  0
  9 10  1  0
  9 11  1  0
 10 12  1  0
 11  5  1  1
 33 34  1  0
 33 35  1  0
 34 36  1  0
 35 37  1  0
 37 43  1  6
 20 21  2  0
 21 22  1  0
M  CHG  3   2  -1  26  -1  41  -1
M  END
>  <COMPND>  (154) 
    udp_gluA.pdb 

>  <AUTHOR>  (154) 
    GENERATED BY OPEN BABEL 3.1.1

>  <MASTER>  (154) 
        0    0    0    0    0    0    0    0   56    0   56    0

>  <minimizedAffinity>  (154) 
-6.92472

>  <CNNscore>  (154) 
0.2956047654

>  <CNNaffinity>  (154) 
4.0272445679

>  <CNN_VS>  (154) 
1.1904727221

>  <CNNaffinity_variance>  (154) 
0.1022843346

$$$$
155
     RDKit          3D

 43 45  0  0  0  0  0  0  0  0999 V2000
   19.4789   71.8298   -1.5423 P   0  0  2  0  0  0  0  0  0  0  0  0
   19.3128   73.1708   -0.6518 O   0  0  0  0  0  0  0  0  0  0  0  0
   19.6409   70.5626   -0.7552 O   0  0  0  0  0  0  0  0  0  0  0  0
   20.6870   72.1852   -2.5583 O   0  0  0  0  0  0  0  0  0  0  0  0
   21.3792   71.1207   -3.1843 C   0  0  0  0  0  0  0  0  0  0  0  0
   23.0652   72.4497   -2.1033 O   0  0  0  0  0  0  0  0  0  0  0  0
   24.8963   70.1070   -2.4911 O   0  0  0  0  0  0  0  0  0  0  0  0
   24.1747   69.8722    0.1281 O   0  0  0  0  0  0  0  0  0  0  0  0
   23.4998   70.1230   -2.1943 C   0  0  1  0  0  0  0  0  0  0  0  0
   23.2754   70.5166   -0.7497 C   0  0  2  0  0  0  0  0  0  0  0  0
   22.8736   71.2911   -2.9437 C   0  0  1  0  0  0  0  0  0  0  0  0
   23.4813   72.0210   -0.7971 C   0  0  2  0  0  0  0  0  0  0  0  0
   25.3182   69.3689   -2.0233 H   0  0  0  0  0  0  0  0  0  0  0  0
   24.0030   68.9170    0.1230 H   0  0  0  0  0  0  0  0  0  0  0  0
   22.9964   74.8033   -0.8082 O   0  0  0  0  0  0  0  0  0  0  0  0
   20.4791   74.5646    3.0454 O   0  0  0  0  0  0  0  0  0  0  0  0
   22.7026   72.7121    0.1913 N   0  0  0  0  0  0  0  0  0  0  0  0
   21.7440   74.6819    1.1117 N   0  0  0  0  0  0  0  0  0  0  0  0
   22.5198   74.1118    0.0938 C   0  0  0  0  0  0  0  0  0  0  0  0
   22.1284   72.0050    1.2407 C   0  0  0  0  0  0  0  0  0  0  0  0
   21.3913   72.5623    2.2034 C   0  0  0  0  0  0  0  0  0  0  0  0
   21.1528   74.0203    2.1758 C   0  0  0  0  0  0  0  0  0  0  0  0
   21.6045   75.6555    1.0663 H   0  0  0  0  0  0  0  0  0  0  0  0
   18.1767   71.8662   -2.4993 O   0  0  0  0  0  0  0  0  0  0  0  0
   17.5690   70.7579   -3.5073 P   0  0  2  0  0  0  0  0  0  0  0  0
   15.9962   70.7331   -3.1251 O   0  0  0  0  0  0  0  0  0  0  0  0
   18.2451   69.4196   -3.4312 O   0  0  0  0  0  0  0  0  0  0  0  0
   17.6236   71.4538   -4.9617 O   0  0  0  0  0  0  0  0  0  0  0  0
   18.8619   70.8612   -6.8917 O   0  0  0  0  0  0  0  0  0  0  0  0
   18.7041   74.9760   -7.2248 O   0  0  0  0  0  0  0  0  0  0  0  0
   19.2058   73.7180   -4.6363 O   0  0  0  0  0  0  0  0  0  0  0  0
   17.0135   73.3103   -8.9035 O   0  0  0  0  0  0  0  0  0  0  0  0
   18.2328   73.6792   -6.8584 C   0  0  2  0  0  0  0  0  0  0  0  0
   19.2177   73.0333   -5.8836 C   0  0  2  0  0  0  0  0  0  0  0  0
   18.1181   72.8403   -8.1331 C   0  0  1  0  0  0  0  0  0  0  0  0
   18.8694   71.5630   -5.6479 C   0  0  1  0  0  0  0  0  0  0  0  0
   17.8958   71.3653   -7.8112 C   0  0  1  0  0  0  0  0  0  0  0  0
   18.7850   75.5272   -6.4304 H   0  0  0  0  0  0  0  0  0  0  0  0
   19.4257   74.6517   -4.7784 H   0  0  0  0  0  0  0  0  0  0  0  0
   17.1425   74.2481   -9.1150 H   0  0  0  0  0  0  0  0  0  0  0  0
   18.6607   71.2502  -10.0255 O   0  0  0  0  0  0  0  0  0  0  0  0
   17.8394   69.3313   -9.1077 O   0  0  0  0  0  0  0  0  0  0  0  0
   18.1128   70.5192   -9.0233 C   0  0  0  0  0  0  0  0  0  0  0  0
  1  4  1  0
  1 24  1  0
  1  2  1  1
  1  3  2  0
 25 28  1  0
 25 24  1  0
 25 26  1  1
 25 27  2  0
  6 11  1  0
  6 12  1  0
 29 36  1  0
 29 37  1  0
  9  7  1  1
  7 13  1  0
 10  8  1  1
  8 14  1  0
  4  5  1  0
 36 28  1  6
 33 30  1  6
 30 38  1  0
 34 31  1  1
 31 39  1  0
 35 32  1  6
 32 40  1  0
 41 43  1  0
 15 19  2  0
 42 43  2  0
 16 22  2  0
 12 17  1  1
 17 19  1  0
 17 20  1  0
 18 19  1  0
 18 22  1  0
 18 23  1  0
  9 10  1  0
  9 11  1  0
 10 12  1  0
 11  5  1  1
 33 34  1  0
 33 35  1  0
 34 36  1  0
 35 37  1  0
 37 43  1  6
 20 21  2  0
 21 22  1  0
M  CHG  3   2  -1  26  -1  41  -1
M  END
>  <COMPND>  (155) 
    udp_gluA.pdb 

>  <AUTHOR>  (155) 
    GENERATED BY OPEN BABEL 3.1.1

>  <MASTER>  (155) 
        0    0    0    0    0    0    0    0   56    0   56    0

>  <minimizedAffinity>  (155) 
-7.54132

>  <CNNscore>  (155) 
0.2954986095

>  <CNNaffinity>  (155) 
3.9648842812

>  <CNN_VS>  (155) 
1.1716177464

>  <CNNaffinity_variance>  (155) 
0.2387426198

$$$$
156
     RDKit          3D

 43 45  0  0  0  0  0  0  0  0999 V2000
   21.1458   75.7607   -2.7119 P   0  0  2  0  0  0  0  0  0  0  0  0
   21.8679   77.2084   -2.6718 O   0  0  0  0  0  0  0  0  0  0  0  0
   21.9631   74.6296   -2.1601 O   0  0  0  0  0  0  0  0  0  0  0  0
   20.6771   75.6028   -4.2524 O   0  0  0  0  0  0  0  0  0  0  0  0
   20.3443   74.3118   -4.7289 C   0  0  0  0  0  0  0  0  0  0  0  0
   18.1154   73.5145   -5.1461 O   0  0  0  0  0  0  0  0  0  0  0  0
   18.1006   72.6175   -2.2848 O   0  0  0  0  0  0  0  0  0  0  0  0
   18.5975   70.3000   -3.6332 O   0  0  0  0  0  0  0  0  0  0  0  0
   19.1762   72.6258   -3.2237 C   0  0  1  0  0  0  0  0  0  0  0  0
   18.9979   71.5133   -4.2350 C   0  0  2  0  0  0  0  0  0  0  0  0
   19.0340   73.8698   -4.0900 C   0  0  1  0  0  0  0  0  0  0  0  0
   17.9338   72.0896   -5.1534 C   0  0  2  0  0  0  0  0  0  0  0  0
   18.1701   71.8316   -1.7199 H   0  0  0  0  0  0  0  0  0  0  0  0
   19.3087   69.9739   -3.0588 H   0  0  0  0  0  0  0  0  0  0  0  0
   16.6680   69.7654   -6.1396 O   0  0  0  0  0  0  0  0  0  0  0  0
   18.4706   70.3458  -10.3417 O   0  0  0  0  0  0  0  0  0  0  0  0
   18.0551   71.6103   -6.5012 N   0  0  0  0  0  0  0  0  0  0  0  0
   17.5678   70.0561   -8.2313 N   0  0  0  0  0  0  0  0  0  0  0  0
   17.3781   70.4319   -6.8949 C   0  0  0  0  0  0  0  0  0  0  0  0
   18.8358   72.3054   -7.4168 C   0  0  0  0  0  0  0  0  0  0  0  0
   19.0070   71.9349   -8.6873 C   0  0  0  0  0  0  0  0  0  0  0  0
   18.3348   70.7143   -9.1790 C   0  0  0  0  0  0  0  0  0  0  0  0
   17.1080   69.2377   -8.5282 H   0  0  0  0  0  0  0  0  0  0  0  0
   19.7541   76.0278   -1.9342 O   0  0  0  0  0  0  0  0  0  0  0  0
   19.3005   75.6832   -0.4212 P   0  0  2  0  0  0  0  0  0  0  0  0
   17.7864   75.1406   -0.6035 O   0  0  0  0  0  0  0  0  0  0  0  0
   19.4352   76.8299    0.5383 O   0  0  0  0  0  0  0  0  0  0  0  0
   20.1570   74.3747   -0.0252 O   0  0  0  0  0  0  0  0  0  0  0  0
   19.6465   72.0639    0.0699 O   0  0  0  0  0  0  0  0  0  0  0  0
   22.1145   72.5154    3.3521 O   0  0  0  0  0  0  0  0  0  0  0  0
   20.0692   74.5130    2.7514 O   0  0  0  0  0  0  0  0  0  0  0  0
   23.1243   71.2693    0.9276 O   0  0  0  0  0  0  0  0  0  0  0  0
   21.6274   72.7950    2.0397 C   0  0  2  0  0  0  0  0  0  0  0  0
   20.1674   73.2416    2.1200 C   0  0  2  0  0  0  0  0  0  0  0  0
   21.7477   71.5158    1.2082 C   0  0  1  0  0  0  0  0  0  0  0  0
   19.5443   73.3283    0.7261 C   0  0  1  0  0  0  0  0  0  0  0  0
   20.9947   71.6376   -0.1134 C   0  0  1  0  0  0  0  0  0  0  0  0
   22.0479   73.3141    3.8989 H   0  0  0  0  0  0  0  0  0  0  0  0
   20.4630   74.4654    3.6363 H   0  0  0  0  0  0  0  0  0  0  0  0
   23.6149   71.1899    1.7605 H   0  0  0  0  0  0  0  0  0  0  0  0
   22.0015   69.9085   -1.3374 O   0  0  0  0  0  0  0  0  0  0  0  0
   19.8093   69.6414   -0.7701 O   0  0  0  0  0  0  0  0  0  0  0  0
   20.8385   70.2998   -0.7601 C   0  0  0  0  0  0  0  0  0  0  0  0
  1  4  1  0
  1 24  1  0
  1  2  1  6
  1  3  2  0
 25 28  1  0
 25 24  1  0
 25 26  1  6
 25 27  2  0
  6 11  1  0
  6 12  1  0
 29 36  1  0
 29 37  1  0
  9  7  1  1
  7 13  1  0
 10  8  1  1
  8 14  1  0
  4  5  1  0
 36 28  1  6
 33 30  1  1
 30 38  1  0
 34 31  1  6
 31 39  1  0
 35 32  1  6
 32 40  1  0
 41 43  1  0
 15 19  2  0
 42 43  2  0
 16 22  2  0
 12 17  1  6
 17 19  1  0
 17 20  1  0
 18 19  1  0
 18 22  1  0
 18 23  1  0
  9 10  1  0
  9 11  1  0
 10 12  1  0
 11  5  1  6
 33 34  1  0
 33 35  1  0
 34 36  1  0
 35 37  1  0
 37 43  1  1
 20 21  2  0
 21 22  1  0
M  CHG  3   2  -1  26  -1  41  -1
M  END
>  <COMPND>  (156) 
    udp_gluA.pdb 

>  <AUTHOR>  (156) 
    GENERATED BY OPEN BABEL 3.1.1

>  <MASTER>  (156) 
        0    0    0    0    0    0    0    0   56    0   56    0

>  <minimizedAffinity>  (156) 
-6.49382

>  <CNNscore>  (156) 
0.2859784663

>  <CNNaffinity>  (156) 
4.0101156235

>  <CNN_VS>  (156) 
1.1468067169

>  <CNNaffinity_variance>  (156) 
0.1153587848

$$$$
157
     RDKit          3D

 43 45  0  0  0  0  0  0  0  0999 V2000
   20.7802   70.2516   -1.9060 P   0  0  2  0  0  0  0  0  0  0  0  0
   20.2205   69.3142   -0.7114 O   0  0  0  0  0  0  0  0  0  0  0  0
   21.9401   69.6812   -2.6683 O   0  0  0  0  0  0  0  0  0  0  0  0
   21.0436   71.6782   -1.1894 O   0  0  0  0  0  0  0  0  0  0  0  0
   21.8397   71.7102   -0.0191 C   0  0  0  0  0  0  0  0  0  0  0  0
   21.7057   72.7458    2.1459 O   0  0  0  0  0  0  0  0  0  0  0  0
   18.7279   72.5878    1.8314 O   0  0  0  0  0  0  0  0  0  0  0  0
   19.2542   75.1925    1.2197 O   0  0  0  0  0  0  0  0  0  0  0  0
   19.7288   72.8375    0.8443 C   0  0  1  0  0  0  0  0  0  0  0  0
   20.2741   74.2419    0.9945 C   0  0  2  0  0  0  0  0  0  0  0  0
   20.9447   71.9857    1.1823 C   0  0  1  0  0  0  0  0  0  0  0  0
   21.2072   74.0924    2.1841 C   0  0  2  0  0  0  0  0  0  0  0  0
   17.9409   73.1211    1.6365 H   0  0  0  0  0  0  0  0  0  0  0  0
   18.6876   75.2510    0.4339 H   0  0  0  0  0  0  0  0  0  0  0  0
   22.8249   74.7719    4.3972 O   0  0  0  0  0  0  0  0  0  0  0  0
   25.4341   77.5955    1.8550 O   0  0  0  0  0  0  0  0  0  0  0  0
   22.3159   75.0025    2.1286 N   0  0  0  0  0  0  0  0  0  0  0  0
   24.1222   76.1784    3.1291 N   0  0  0  0  0  0  0  0  0  0  0  0
   23.0640   75.2757    3.2981 C   0  0  0  0  0  0  0  0  0  0  0  0
   22.6534   75.6122    0.9263 C   0  0  0  0  0  0  0  0  0  0  0  0
   23.6649   76.4703    0.7808 C   0  0  0  0  0  0  0  0  0  0  0  0
   24.4960   76.8105    1.9542 C   0  0  0  0  0  0  0  0  0  0  0  0
   24.6563   76.3858    3.9298 H   0  0  0  0  0  0  0  0  0  0  0  0
   19.4607   70.5306   -2.7969 O   0  0  0  0  0  0  0  0  0  0  0  0
   18.5840   69.5459   -3.7326 P   0  0  2  0  0  0  0  0  0  0  0  0
   17.2009   69.3855   -2.9069 O   0  0  0  0  0  0  0  0  0  0  0  0
   19.2606   68.2473   -4.0639 O   0  0  0  0  0  0  0  0  0  0  0  0
   18.1910   70.4423   -5.0149 O   0  0  0  0  0  0  0  0  0  0  0  0
   19.1982   70.6535   -7.1480 O   0  0  0  0  0  0  0  0  0  0  0  0
   17.8182   74.4909   -6.4865 O   0  0  0  0  0  0  0  0  0  0  0  0
   19.0925   72.9836   -4.3327 O   0  0  0  0  0  0  0  0  0  0  0  0
   16.4124   72.7313   -8.3245 O   0  0  0  0  0  0  0  0  0  0  0  0
   17.8064   73.0667   -6.3882 C   0  0  2  0  0  0  0  0  0  0  0  0
   19.0860   72.5906   -5.7003 C   0  0  2  0  0  0  0  0  0  0  0  0
   17.7198   72.4957   -7.8054 C   0  0  1  0  0  0  0  0  0  0  0  0
   19.2175   71.0691   -5.7819 C   0  0  1  0  0  0  0  0  0  0  0  0
   17.9861   70.9932   -7.8177 C   0  0  1  0  0  0  0  0  0  0  0  0
   17.8728   74.8760   -5.5977 H   0  0  0  0  0  0  0  0  0  0  0  0
   19.0091   73.9479   -4.2735 H   0  0  0  0  0  0  0  0  0  0  0  0
   16.2303   73.6840   -8.3220 H   0  0  0  0  0  0  0  0  0  0  0  0
   17.8662   69.2062   -9.3323 O   0  0  0  0  0  0  0  0  0  0  0  0
   18.6787   71.1854  -10.1209 O   0  0  0  0  0  0  0  0  0  0  0  0
   18.2251   70.5082   -9.2106 C   0  0  0  0  0  0  0  0  0  0  0  0
  1  4  1  0
  1 24  1  0
  1  2  1  1
  1  3  2  0
 25 28  1  0
 25 24  1  0
 25 26  1  1
 25 27  2  0
  6 11  1  0
  6 12  1  0
 29 36  1  0
 29 37  1  0
  9  7  1  1
  7 13  1  0
 10  8  1  1
  8 14  1  0
  4  5  1  0
 36 28  1  1
 33 30  1  6
 30 38  1  0
 34 31  1  1
 31 39  1  0
 35 32  1  1
 32 40  1  0
 41 43  1  0
 15 19  2  0
 42 43  2  0
 16 22  2  0
 12 17  1  6
 17 19  1  0
 17 20  1  0
 18 19  1  0
 18 22  1  0
 18 23  1  0
  9 10  1  0
  9 11  1  0
 10 12  1  0
 11  5  1  6
 33 34  1  0
 33 35  1  0
 34 36  1  0
 35 37  1  0
 37 43  1  6
 20 21  2  0
 21 22  1  0
M  CHG  3   2  -1  26  -1  41  -1
M  END
>  <COMPND>  (157) 
    udp_gluA.pdb 

>  <AUTHOR>  (157) 
    GENERATED BY OPEN BABEL 3.1.1

>  <MASTER>  (157) 
        0    0    0    0    0    0    0    0   56    0   56    0

>  <minimizedAffinity>  (157) 
-7.68467

>  <CNNscore>  (157) 
0.2806986868

>  <CNNaffinity>  (157) 
3.9062476158

>  <CNN_VS>  (157) 
1.0964785814

>  <CNNaffinity_variance>  (157) 
0.0369550139

$$$$
158
     RDKit          3D

 43 45  0  0  0  0  0  0  0  0999 V2000
   20.3225   74.6371   -3.0725 P   0  0  2  0  0  0  0  0  0  0  0  0
   21.7168   74.6326   -2.2509 O   0  0  0  0  0  0  0  0  0  0  0  0
   20.2582   75.6187   -4.2057 O   0  0  0  0  0  0  0  0  0  0  0  0
   19.1959   74.8142   -1.9248 O   0  0  0  0  0  0  0  0  0  0  0  0
   19.6120   75.1608   -0.6166 C   0  0  0  0  0  0  0  0  0  0  0  0
   19.2862   72.8386   -0.0885 O   0  0  0  0  0  0  0  0  0  0  0  0
   18.6607   73.7520    2.6983 O   0  0  0  0  0  0  0  0  0  0  0  0
   21.2350   72.8804    2.9206 O   0  0  0  0  0  0  0  0  0  0  0  0
   19.6097   74.2739    1.7679 C   0  0  1  0  0  0  0  0  0  0  0  0
   20.8021   73.3472    1.6599 C   0  0  2  0  0  0  0  0  0  0  0  0
   19.0036   74.1769    0.3745 C   0  0  1  0  0  0  0  0  0  0  0  0
   20.2583   72.2348    0.7797 C   0  0  2  0  0  0  0  0  0  0  0  0
   19.0256   73.8033    3.5960 H   0  0  0  0  0  0  0  0  0  0  0  0
   21.5722   73.6257    3.4429 H   0  0  0  0  0  0  0  0  0  0  0  0
   19.9673   69.7618   -0.5531 O   0  0  0  0  0  0  0  0  0  0  0  0
   24.2442   69.9699   -2.2585 O   0  0  0  0  0  0  0  0  0  0  0  0
   21.2799   71.6195   -0.0195 N   0  0  0  0  0  0  0  0  0  0  0  0
   22.0981   69.8674   -1.4004 N   0  0  0  0  0  0  0  0  0  0  0  0
   21.0320   70.3754   -0.6464 C   0  0  0  0  0  0  0  0  0  0  0  0
   22.5093   72.2475   -0.1773 C   0  0  0  0  0  0  0  0  0  0  0  0
   23.5158   71.7509   -0.8992 C   0  0  0  0  0  0  0  0  0  0  0  0
   23.3391   70.4547   -1.5862 C   0  0  0  0  0  0  0  0  0  0  0  0
   21.9499   69.0013   -1.8446 H   0  0  0  0  0  0  0  0  0  0  0  0
   20.1547   73.0904   -3.5110 O   0  0  0  0  0  0  0  0  0  0  0  0
   21.0004   72.1834   -4.5482 P   0  0  2  0  0  0  0  0  0  0  0  0
   20.8227   70.6858   -3.9600 O   0  0  0  0  0  0  0  0  0  0  0  0
   22.4280   72.6146   -4.7210 O   0  0  0  0  0  0  0  0  0  0  0  0
   20.1289   72.1937   -5.9057 O   0  0  0  0  0  0  0  0  0  0  0  0
   18.3707   73.6102   -6.6209 O   0  0  0  0  0  0  0  0  0  0  0  0
   17.2548   69.9888   -8.2665 O   0  0  0  0  0  0  0  0  0  0  0  0
   18.3151   70.1158   -5.5473 O   0  0  0  0  0  0  0  0  0  0  0  0
   18.3988   72.0654   -9.9488 O   0  0  0  0  0  0  0  0  0  0  0  0
   18.1680   70.9854   -7.8074 C   0  0  2  0  0  0  0  0  0  0  0  0
   17.9333   71.2482   -6.3197 C   0  0  2  0  0  0  0  0  0  0  0  0
   17.9236   72.2602   -8.6181 C   0  0  1  0  0  0  0  0  0  0  0  0
   18.7298   72.4651   -5.8467 C   0  0  1  0  0  0  0  0  0  0  0  0
   18.6521   73.4553   -8.0101 C   0  0  1  0  0  0  0  0  0  0  0  0
   17.3915   69.1693   -7.7654 H   0  0  0  0  0  0  0  0  0  0  0  0
   17.8137   69.3399   -5.8422 H   0  0  0  0  0  0  0  0  0  0  0  0
   17.9431   71.3074  -10.3471 H   0  0  0  0  0  0  0  0  0  0  0  0
   18.6198   74.8949   -9.8616 O   0  0  0  0  0  0  0  0  0  0  0  0
   17.4252   75.5327   -8.0271 O   0  0  0  0  0  0  0  0  0  0  0  0
   18.1540   74.7353   -8.5981 C   0  0  0  0  0  0  0  0  0  0  0  0
  1  4  1  0
  1 24  1  0
  1  2  1  1
  1  3  2  0
 25 28  1  0
 25 24  1  0
 25 26  1  1
 25 27  2  0
  6 11  1  0
  6 12  1  0
 29 36  1  0
 29 37  1  0
  9  7  1  1
  7 13  1  0
 10  8  1  1
  8 14  1  0
  4  5  1  0
 36 28  1  6
 33 30  1  6
 30 38  1  0
 34 31  1  1
 31 39  1  0
 35 32  1  6
 32 40  1  0
 41 43  1  0
 15 19  2  0
 42 43  2  0
 16 22  2  0
 12 17  1  6
 17 19  1  0
 17 20  1  0
 18 19  1  0
 18 22  1  0
 18 23  1  0
  9 10  1  0
  9 11  1  0
 10 12  1  0
 11  5  1  6
 33 34  1  0
 33 35  1  0
 34 36  1  0
 35 37  1  0
 37 43  1  6
 20 21  2  0
 21 22  1  0
M  CHG  3   2  -1  26  -1  41  -1
M  END
>  <COMPND>  (158) 
    udp_gluA.pdb 

>  <AUTHOR>  (158) 
    GENERATED BY OPEN BABEL 3.1.1

>  <MASTER>  (158) 
        0    0    0    0    0    0    0    0   56    0   56    0

>  <minimizedAffinity>  (158) 
-7.19007

>  <CNNscore>  (158) 
0.2672339976

>  <CNNaffinity>  (158) 
3.7420165539

>  <CNN_VS>  (158) 
0.9999940395

>  <CNNaffinity_variance>  (158) 
0.5676094890

$$$$
159
     RDKit          3D

 43 45  0  0  0  0  0  0  0  0999 V2000
   16.9323   74.4098   -2.7336 P   0  0  2  0  0  0  0  0  0  0  0  0
   15.6892   73.4470   -2.3506 O   0  0  0  0  0  0  0  0  0  0  0  0
   16.5720   75.8481   -2.9645 O   0  0  0  0  0  0  0  0  0  0  0  0
   17.6400   73.6543   -3.9771 O   0  0  0  0  0  0  0  0  0  0  0  0
   18.2211   74.4387   -5.0026 C   0  0  0  0  0  0  0  0  0  0  0  0
   19.9667   72.9372   -4.3128 O   0  0  0  0  0  0  0  0  0  0  0  0
   21.6086   74.1281   -6.5213 O   0  0  0  0  0  0  0  0  0  0  0  0
   20.7619   71.7758   -7.6102 O   0  0  0  0  0  0  0  0  0  0  0  0
   20.2073   73.8572   -6.4822 C   0  0  1  0  0  0  0  0  0  0  0  0
   19.9572   72.3698   -6.6131 C   0  0  2  0  0  0  0  0  0  0  0  0
   19.7133   74.1404   -5.0701 C   0  0  1  0  0  0  0  0  0  0  0  0
   20.2908   71.8699   -5.2178 C   0  0  2  0  0  0  0  0  0  0  0  0
   21.9471   73.9544   -7.4140 H   0  0  0  0  0  0  0  0  0  0  0  0
   20.5107   72.1264   -8.4797 H   0  0  0  0  0  0  0  0  0  0  0  0
   21.1751   69.8882   -3.4103 O   0  0  0  0  0  0  0  0  0  0  0  0
   17.2987   67.4450   -3.9083 O   0  0  0  0  0  0  0  0  0  0  0  0
   19.5327   70.7054   -4.8571 N   0  0  0  0  0  0  0  0  0  0  0  0
   19.2440   68.6727   -3.6608 N   0  0  0  0  0  0  0  0  0  0  0  0
   20.0684   69.7708   -3.9397 C   0  0  0  0  0  0  0  0  0  0  0  0
   18.2738   70.4992   -5.4081 C   0  0  0  0  0  0  0  0  0  0  0  0
   17.4997   69.4478   -5.1325 C   0  0  0  0  0  0  0  0  0  0  0  0
   17.9855   68.4240   -4.1842 C   0  0  0  0  0  0  0  0  0  0  0  0
   19.5964   68.0074   -3.0264 H   0  0  0  0  0  0  0  0  0  0  0  0
   17.9704   74.1622   -1.5196 O   0  0  0  0  0  0  0  0  0  0  0  0
   19.2175   75.0457   -0.9926 P   0  0  2  0  0  0  0  0  0  0  0  0
   18.5814   75.8887    0.2342 O   0  0  0  0  0  0  0  0  0  0  0  0
   19.8659   75.8892   -2.0519 O   0  0  0  0  0  0  0  0  0  0  0  0
   20.2039   73.9817   -0.2873 O   0  0  0  0  0  0  0  0  0  0  0  0
   21.9265   75.0347    0.9508 O   0  0  0  0  0  0  0  0  0  0  0  0
   23.0468   71.0637    1.1613 O   0  0  0  0  0  0  0  0  0  0  0  0
   22.0514   72.1908   -1.3434 O   0  0  0  0  0  0  0  0  0  0  0  0
   21.8367   72.3625    3.4634 O   0  0  0  0  0  0  0  0  0  0  0  0
   22.1327   72.1574    1.0812 C   0  0  2  0  0  0  0  0  0  0  0  0
   22.4003   72.9554   -0.1952 C   0  0  2  0  0  0  0  0  0  0  0  0
   22.3416   73.0396    2.3141 C   0  0  1  0  0  0  0  0  0  0  0  0
   21.6006   74.2590   -0.2031 C   0  0  1  0  0  0  0  0  0  0  0  0
   21.6135   74.3733    2.1746 C   0  0  1  0  0  0  0  0  0  0  0  0
   22.9324   70.4892    0.3879 H   0  0  0  0  0  0  0  0  0  0  0  0
   22.5550   71.3621   -1.3446 H   0  0  0  0  0  0  0  0  0  0  0  0
   22.2918   71.5118    3.5635 H   0  0  0  0  0  0  0  0  0  0  0  0
   23.1331   74.8376    3.8999 O   0  0  0  0  0  0  0  0  0  0  0  0
   21.5912   76.4448    3.4114 O   0  0  0  0  0  0  0  0  0  0  0  0
   22.0813   75.3439    3.2097 C   0  0  0  0  0  0  0  0  0  0  0  0
  1  4  1  0
  1 24  1  0
  1  2  1  1
  1  3  2  0
 25 28  1  0
 25 24  1  0
 25 26  1  1
 25 27  2  0
  6 11  1  0
  6 12  1  0
 29 36  1  0
 29 37  1  0
  9  7  1  1
  7 13  1  0
 10  8  1  6
  8 14  1  0
  4  5  1  0
 36 28  1  1
 33 30  1  1
 30 38  1  0
 34 31  1  6
 31 39  1  0
 35 32  1  1
 32 40  1  0
 41 43  1  0
 15 19  2  0
 42 43  2  0
 16 22  2  0
 12 17  1  1
 17 19  1  0
 17 20  1  0
 18 19  1  0
 18 22  1  0
 18 23  1  0
  9 10  1  0
  9 11  1  0
 10 12  1  0
 11  5  1  6
 33 34  1  0
 33 35  1  0
 34 36  1  0
 35 37  1  0
 37 43  1  1
 20 21  2  0
 21 22  1  0
M  CHG  3   2  -1  26  -1  41  -1
M  END
>  <COMPND>  (159) 
    udp_gluA.pdb 

>  <AUTHOR>  (159) 
    GENERATED BY OPEN BABEL 3.1.1

>  <MASTER>  (159) 
        0    0    0    0    0    0    0    0   56    0   56    0

>  <minimizedAffinity>  (159) 
-6.50869

>  <CNNscore>  (159) 
0.2608446777

>  <CNNaffinity>  (159) 
3.8045182228

>  <CNN_VS>  (159) 
0.9923883080

>  <CNNaffinity_variance>  (159) 
0.3452907205

$$$$
160
     RDKit          3D

 43 45  0  0  0  0  0  0  0  0999 V2000
   18.6773   69.9202   -3.6929 P   0  0  2  0  0  0  0  0  0  0  0  0
   19.8601   68.9283   -4.1788 O   0  0  0  0  0  0  0  0  0  0  0  0
   17.4407   69.2336   -3.1917 O   0  0  0  0  0  0  0  0  0  0  0  0
   18.4668   70.9182   -4.9489 O   0  0  0  0  0  0  0  0  0  0  0  0
   19.0543   70.5757   -6.1906 C   0  0  0  0  0  0  0  0  0  0  0  0
   16.9756   71.4680   -7.0031 O   0  0  0  0  0  0  0  0  0  0  0  0
   17.5448   69.9810   -9.5441 O   0  0  0  0  0  0  0  0  0  0  0  0
   18.2612   72.5353  -10.1752 O   0  0  0  0  0  0  0  0  0  0  0  0
   18.4516   70.6421   -8.6614 C   0  0  1  0  0  0  0  0  0  0  0  0
   18.3373   72.1434   -8.8205 C   0  0  2  0  0  0  0  0  0  0  0  0
   17.9562   70.4341   -7.2368 C   0  0  1  0  0  0  0  0  0  0  0  0
   17.0624   72.4458   -8.0517 C   0  0  2  0  0  0  0  0  0  0  0  0
   17.8406   70.0999  -10.4606 H   0  0  0  0  0  0  0  0  0  0  0  0
   19.0965   72.3219  -10.6209 H   0  0  0  0  0  0  0  0  0  0  0  0
   16.0202   74.7555   -9.2990 O   0  0  0  0  0  0  0  0  0  0  0  0
   17.1564   77.4247   -5.7172 O   0  0  0  0  0  0  0  0  0  0  0  0
   17.0728   73.7572   -7.4676 N   0  0  0  0  0  0  0  0  0  0  0  0
   16.5880   76.0829   -7.5143 N   0  0  0  0  0  0  0  0  0  0  0  0
   16.5237   74.8507   -8.1781 C   0  0  0  0  0  0  0  0  0  0  0  0
   17.6205   73.9498   -6.2051 C   0  0  0  0  0  0  0  0  0  0  0  0
   17.6745   75.1303   -5.5853 C   0  0  0  0  0  0  0  0  0  0  0  0
   17.1233   76.3241   -6.2594 C   0  0  0  0  0  0  0  0  0  0  0  0
   16.2138   76.8594   -7.9900 H   0  0  0  0  0  0  0  0  0  0  0  0
   19.4152   70.8584   -2.6029 O   0  0  0  0  0  0  0  0  0  0  0  0
   20.3446   70.4826   -1.3345 P   0  0  2  0  0  0  0  0  0  0  0  0
   21.8462   70.6147   -1.9243 O   0  0  0  0  0  0  0  0  0  0  0  0
   20.0369   69.1480   -0.7196 O   0  0  0  0  0  0  0  0  0  0  0  0
   20.1904   71.7345   -0.3290 O   0  0  0  0  0  0  0  0  0  0  0  0
   20.6542   74.0561   -0.2614 O   0  0  0  0  0  0  0  0  0  0  0  0
   22.2513   72.7750    3.3269 O   0  0  0  0  0  0  0  0  0  0  0  0
   22.6330   71.2065    0.8921 O   0  0  0  0  0  0  0  0  0  0  0  0
   19.7185   74.2012    3.2834 O   0  0  0  0  0  0  0  0  0  0  0  0
   21.3394   72.7643    2.2285 C   0  0  2  0  0  0  0  0  0  0  0  0
   22.1077   72.5284    0.9279 C   0  0  2  0  0  0  0  0  0  0  0  0
   20.6301   74.1197    2.1894 C   0  0  1  0  0  0  0  0  0  0  0  0
   21.2033   72.7380   -0.2874 C   0  0  1  0  0  0  0  0  0  0  0  0
   19.8509   74.3034    0.8904 C   0  0  1  0  0  0  0  0  0  0  0  0
   22.7139   71.9234    3.3717 H   0  0  0  0  0  0  0  0  0  0  0  0
   23.2076   71.0664    1.6606 H   0  0  0  0  0  0  0  0  0  0  0  0
   20.2018   74.0857    4.1164 H   0  0  0  0  0  0  0  0  0  0  0  0
   18.1003   75.8251    0.5418 O   0  0  0  0  0  0  0  0  0  0  0  0
   20.2043   76.6844    0.7252 O   0  0  0  0  0  0  0  0  0  0  0  0
   19.4419   75.7296    0.7142 C   0  0  0  0  0  0  0  0  0  0  0  0
  1  4  1  0
  1 24  1  0
  1  2  1  6
  1  3  2  0
 25 28  1  0
 25 24  1  0
 25 26  1  6
 25 27  2  0
  6 11  1  0
  6 12  1  0
 29 36  1  0
 29 37  1  0
  9  7  1  6
  7 13  1  0
 10  8  1  6
  8 14  1  0
  4  5  1  0
 36 28  1  1
 33 30  1  1
 30 38  1  0
 34 31  1  1
 31 39  1  0
 35 32  1  1
 32 40  1  0
 41 43  1  0
 15 19  2  0
 42 43  2  0
 16 22  2  0
 12 17  1  1
 17 19  1  0
 17 20  1  0
 18 19  1  0
 18 22  1  0
 18 23  1  0
  9 10  1  0
  9 11  1  0
 10 12  1  0
 11  5  1  1
 33 34  1  0
 33 35  1  0
 34 36  1  0
 35 37  1  0
 37 43  1  6
 20 21  2  0
 21 22  1  0
M  CHG  3   2  -1  26  -1  41  -1
M  END
>  <COMPND>  (160) 
    udp_gluA.pdb 

>  <AUTHOR>  (160) 
    GENERATED BY OPEN BABEL 3.1.1

>  <MASTER>  (160) 
        0    0    0    0    0    0    0    0   56    0   56    0

>  <minimizedAffinity>  (160) 
-7.78329

>  <CNNscore>  (160) 
0.2550089955

>  <CNNaffinity>  (160) 
3.9334480762

>  <CNN_VS>  (160) 
1.0030646324

>  <CNNaffinity_variance>  (160) 
0.1531946510

$$$$
161
     RDKit          3D

 43 45  0  0  0  0  0  0  0  0999 V2000
   22.3725   71.0386   -3.0069 P   0  0  2  0  0  0  0  0  0  0  0  0
   23.4051   71.9654   -3.8397 O   0  0  0  0  0  0  0  0  0  0  0  0
   22.8909   69.6768   -2.6486 O   0  0  0  0  0  0  0  0  0  0  0  0
   21.0221   71.0643   -3.8978 O   0  0  0  0  0  0  0  0  0  0  0  0
   19.9425   70.2328   -3.5134 C   0  0  0  0  0  0  0  0  0  0  0  0
   18.5892   71.7423   -4.8048 O   0  0  0  0  0  0  0  0  0  0  0  0
   16.3387   71.0019   -2.9669 O   0  0  0  0  0  0  0  0  0  0  0  0
   15.8166   69.5009   -5.1828 O   0  0  0  0  0  0  0  0  0  0  0  0
   17.3992   70.1890   -3.4699 C   0  0  1  0  0  0  0  0  0  0  0  0
   17.1591   69.8573   -4.9275 C   0  0  2  0  0  0  0  0  0  0  0  0
   18.6552   71.0467   -3.5411 C   0  0  1  0  0  0  0  0  0  0  0  0
   17.5619   71.1503   -5.6158 C   0  0  2  0  0  0  0  0  0  0  0  0
   15.5253   70.4755   -2.9124 H   0  0  0  0  0  0  0  0  0  0  0  0
   15.6092   68.6716   -4.7233 H   0  0  0  0  0  0  0  0  0  0  0  0
   15.9620   70.8167   -7.9191 O   0  0  0  0  0  0  0  0  0  0  0  0
   19.6532   70.3108  -10.6326 O   0  0  0  0  0  0  0  0  0  0  0  0
   18.0788   70.9300   -6.9368 N   0  0  0  0  0  0  0  0  0  0  0  0
   17.8020   70.5640   -9.2683 N   0  0  0  0  0  0  0  0  0  0  0  0
   17.1891   70.7747   -8.0260 C   0  0  0  0  0  0  0  0  0  0  0  0
   19.4517   70.8713   -7.1436 C   0  0  0  0  0  0  0  0  0  0  0  0
   20.0210   70.6699   -8.3336 C   0  0  0  0  0  0  0  0  0  0  0  0
   19.1621   70.4972   -9.5234 C   0  0  0  0  0  0  0  0  0  0  0  0
   17.2029   70.4510  -10.0414 H   0  0  0  0  0  0  0  0  0  0  0  0
   21.9904   71.9682   -1.7410 O   0  0  0  0  0  0  0  0  0  0  0  0
   21.6475   71.5855   -0.2082 P   0  0  2  0  0  0  0  0  0  0  0  0
   23.0386   70.9635    0.3378 O   0  0  0  0  0  0  0  0  0  0  0  0
   20.4609   70.6794   -0.0504 O   0  0  0  0  0  0  0  0  0  0  0  0
   21.5115   73.0043    0.5474 O   0  0  0  0  0  0  0  0  0  0  0  0
   22.0065   73.6975    2.7573 O   0  0  0  0  0  0  0  0  0  0  0  0
   18.6047   75.8911    1.9302 O   0  0  0  0  0  0  0  0  0  0  0  0
   18.7921   73.0891    1.1251 O   0  0  0  0  0  0  0  0  0  0  0  0
   21.2116   77.1774    1.9081 O   0  0  0  0  0  0  0  0  0  0  0  0
   19.8300   75.2233    1.6289 C   0  0  2  0  0  0  0  0  0  0  0  0
   19.7095   73.7435    1.9939 C   0  0  2  0  0  0  0  0  0  0  0  0
   20.9422   75.8843    2.4464 C   0  0  1  0  0  0  0  0  0  0  0  0
   21.0670   73.0452    1.9022 C   0  0  1  0  0  0  0  0  0  0  0  0
   22.2269   75.0619    2.4064 C   0  0  1  0  0  0  0  0  0  0  0  0
   17.8832   75.4880    1.4221 H   0  0  0  0  0  0  0  0  0  0  0  0
   17.9287   73.5272    1.1780 H   0  0  0  0  0  0  0  0  0  0  0  0
   20.4018   77.7109    1.9277 H   0  0  0  0  0  0  0  0  0  0  0  0
   23.2377   74.6444    4.4813 O   0  0  0  0  0  0  0  0  0  0  0  0
   23.8419   76.5565    3.3959 O   0  0  0  0  0  0  0  0  0  0  0  0
   23.1870   75.5265    3.4526 C   0  0  0  0  0  0  0  0  0  0  0  0
  1  4  1  0
  1 24  1  0
  1  2  1  6
  1  3  2  0
 25 28  1  0
 25 24  1  0
 25 26  1  1
 25 27  2  0
  6 11  1  0
  6 12  1  0
 29 36  1  0
 29 37  1  0
  9  7  1  6
  7 13  1  0
 10  8  1  1
  8 14  1  0
  4  5  1  0
 36 28  1  6
 33 30  1  1
 30 38  1  0
 34 31  1  6
 31 39  1  0
 35 32  1  6
 32 40  1  0
 41 43  1  0
 15 19  2  0
 42 43  2  0
 16 22  2  0
 12 17  1  6
 17 19  1  0
 17 20  1  0
 18 19  1  0
 18 22  1  0
 18 23  1  0
  9 10  1  0
  9 11  1  0
 10 12  1  0
 11  5  1  6
 33 34  1  0
 33 35  1  0
 34 36  1  0
 35 37  1  0
 37 43  1  1
 20 21  2  0
 21 22  1  0
M  CHG  3   2  -1  26  -1  41  -1
M  END
>  <COMPND>  (161) 
    udp_gluA.pdb 

>  <AUTHOR>  (161) 
    GENERATED BY OPEN BABEL 3.1.1

>  <MASTER>  (161) 
        0    0    0    0    0    0    0    0   56    0   56    0

>  <minimizedAffinity>  (161) 
-7.83804

>  <CNNscore>  (161) 
0.7481765151

>  <CNNaffinity>  (161) 
4.6720347404

>  <CNN_VS>  (161) 
3.4955067635

>  <CNNaffinity_variance>  (161) 
0.0920661390

$$$$
162
     RDKit          3D

 43 45  0  0  0  0  0  0  0  0999 V2000
   21.0222   70.2169   -1.5053 P   0  0  2  0  0  0  0  0  0  0  0  0
   22.5944   69.8780   -1.6840 O   0  0  0  0  0  0  0  0  0  0  0  0
   20.2540   69.2371   -0.6676 O   0  0  0  0  0  0  0  0  0  0  0  0
   20.4921   70.4123   -3.0215 O   0  0  0  0  0  0  0  0  0  0  0  0
   19.3854   69.6431   -3.4552 C   0  0  0  0  0  0  0  0  0  0  0  0
   18.2164   71.3523   -4.6758 O   0  0  0  0  0  0  0  0  0  0  0  0
   15.7942   70.5653   -3.0930 O   0  0  0  0  0  0  0  0  0  0  0  0
   15.3701   69.3285   -5.4860 O   0  0  0  0  0  0  0  0  0  0  0  0
   16.8475   69.7458   -3.6005 C   0  0  1  0  0  0  0  0  0  0  0  0
   16.7051   69.5772   -5.0984 C   0  0  2  0  0  0  0  0  0  0  0  0
   18.1478   70.5304   -3.4904 C   0  0  1  0  0  0  0  0  0  0  0  0
   17.2264   70.9068   -5.6164 C   0  0  2  0  0  0  0  0  0  0  0  0
   14.9531   70.0852   -3.1530 H   0  0  0  0  0  0  0  0  0  0  0  0
   15.0851   68.4709   -5.1321 H   0  0  0  0  0  0  0  0  0  0  0  0
   15.7906   70.8212   -8.0469 O   0  0  0  0  0  0  0  0  0  0  0  0
   19.6570   70.4581  -10.5295 O   0  0  0  0  0  0  0  0  0  0  0  0
   17.8327   70.7903   -6.9124 N   0  0  0  0  0  0  0  0  0  0  0  0
   17.7176   70.6394   -9.2810 N   0  0  0  0  0  0  0  0  0  0  0  0
   17.0211   70.7559   -8.0709 C   0  0  0  0  0  0  0  0  0  0  0  0
   19.2155   70.7132   -7.0268 C   0  0  0  0  0  0  0  0  0  0  0  0
   19.8650   70.6025   -8.1873 C   0  0  0  0  0  0  0  0  0  0  0  0
   19.0910   70.5588   -9.4452 C   0  0  0  0  0  0  0  0  0  0  0  0
   17.1738   70.6114  -10.1012 H   0  0  0  0  0  0  0  0  0  0  0  0
   21.0397   71.7271   -0.9291 O   0  0  0  0  0  0  0  0  0  0  0  0
   21.0545   72.2840    0.5886 P   0  0  2  0  0  0  0  0  0  0  0  0
   22.3106   71.5098    1.2543 O   0  0  0  0  0  0  0  0  0  0  0  0
   19.7575   72.1044    1.3231 O   0  0  0  0  0  0  0  0  0  0  0  0
   21.5433   73.8158    0.4577 O   0  0  0  0  0  0  0  0  0  0  0  0
   19.7617   75.1632    1.2447 O   0  0  0  0  0  0  0  0  0  0  0  0
   22.6242   78.0005    0.3373 O   0  0  0  0  0  0  0  0  0  0  0  0
   22.1600   75.7398   -1.4538 O   0  0  0  0  0  0  0  0  0  0  0  0
   22.1074   77.2830    3.1066 O   0  0  0  0  0  0  0  0  0  0  0  0
   22.1414   76.7262    0.7627 C   0  0  2  0  0  0  0  0  0  0  0  0
   21.3208   76.0893   -0.3592 C   0  0  2  0  0  0  0  0  0  0  0  0
   21.2711   76.9402    2.0031 C   0  0  1  0  0  0  0  0  0  0  0  0
   20.5989   74.8351    0.1353 C   0  0  1  0  0  0  0  0  0  0  0  0
   20.4874   75.6799    2.3580 C   0  0  1  0  0  0  0  0  0  0  0  0
   23.1800   77.8895   -0.4501 H   0  0  0  0  0  0  0  0  0  0  0  0
   22.6214   76.5310   -1.7724 H   0  0  0  0  0  0  0  0  0  0  0  0
   22.6119   78.0835    2.8935 H   0  0  0  0  0  0  0  0  0  0  0  0
   19.9101   76.0037    4.6082 O   0  0  0  0  0  0  0  0  0  0  0  0
   18.2397   76.1949    3.0680 O   0  0  0  0  0  0  0  0  0  0  0  0
   19.4107   75.9859    3.3476 C   0  0  0  0  0  0  0  0  0  0  0  0
  1  4  1  0
  1 24  1  0
  1  2  1  6
  1  3  2  0
 25 28  1  0
 25 24  1  0
 25 26  1  1
 25 27  2  0
  6 11  1  0
  6 12  1  0
 29 36  1  0
 29 37  1  0
  9  7  1  6
  7 13  1  0
 10  8  1  1
  8 14  1  0
  4  5  1  0
 36 28  1  1
 33 30  1  6
 30 38  1  0
 34 31  1  6
 31 39  1  0
 35 32  1  1
 32 40  1  0
 41 43  1  0
 15 19  2  0
 42 43  2  0
 16 22  2  0
 12 17  1  6
 17 19  1  0
 17 20  1  0
 18 19  1  0
 18 22  1  0
 18 23  1  0
  9 10  1  0
  9 11  1  0
 10 12  1  0
 11  5  1  6
 33 34  1  0
 33 35  1  0
 34 36  1  0
 35 37  1  0
 37 43  1  1
 20 21  2  0
 21 22  1  0
M  CHG  3   2  -1  26  -1  41  -1
M  END
>  <COMPND>  (162) 
    udp_gluA.pdb 

>  <AUTHOR>  (162) 
    GENERATED BY OPEN BABEL 3.1.1

>  <MASTER>  (162) 
        0    0    0    0    0    0    0    0   56    0   56    0

>  <minimizedAffinity>  (162) 
-7.45426

>  <CNNscore>  (162) 
0.6950260997

>  <CNNaffinity>  (162) 
4.6476721764

>  <CNN_VS>  (162) 
3.2302534580

>  <CNNaffinity_variance>  (162) 
0.2111273259

$$$$
163
     RDKit          3D

 43 45  0  0  0  0  0  0  0  0999 V2000
   22.6181   72.8514   -3.9871 P   0  0  2  0  0  0  0  0  0  0  0  0
   24.0293   72.9567   -4.7723 O   0  0  0  0  0  0  0  0  0  0  0  0
   22.2854   74.0310   -3.1212 O   0  0  0  0  0  0  0  0  0  0  0  0
   22.7008   71.4244   -3.2290 O   0  0  0  0  0  0  0  0  0  0  0  0
   23.4166   71.3468   -2.0100 C   0  0  0  0  0  0  0  0  0  0  0  0
   22.8795   71.1083    0.3207 O   0  0  0  0  0  0  0  0  0  0  0  0
   20.4190   69.6541   -0.5863 O   0  0  0  0  0  0  0  0  0  0  0  0
   19.4595   72.1370    0.0056 O   0  0  0  0  0  0  0  0  0  0  0  0
   21.0810   70.7695   -1.1831 C   0  0  1  0  0  0  0  0  0  0  0  0
   20.8125   72.0272   -0.3840 C   0  0  2  0  0  0  0  0  0  0  0  0
   22.5799   70.5840   -0.9910 C   0  0  1  0  0  0  0  0  0  0  0  0
   21.7496   71.8552    0.7992 C   0  0  2  0  0  0  0  0  0  0  0  0
   19.4597   69.7503   -0.6964 H   0  0  0  0  0  0  0  0  0  0  0  0
   18.9037   72.2450   -0.7828 H   0  0  0  0  0  0  0  0  0  0  0  0
   21.9231   72.4685    3.5506 O   0  0  0  0  0  0  0  0  0  0  0  0
   23.5216   76.7054    2.6921 O   0  0  0  0  0  0  0  0  0  0  0  0
   22.2078   73.1110    1.3225 N   0  0  0  0  0  0  0  0  0  0  0  0
   22.7181   74.5785    3.1204 N   0  0  0  0  0  0  0  0  0  0  0  0
   22.2564   73.3172    2.7215 C   0  0  0  0  0  0  0  0  0  0  0  0
   22.6042   74.1210    0.4543 C   0  0  0  0  0  0  0  0  0  0  0  0
   23.0422   75.3180    0.8494 C   0  0  0  0  0  0  0  0  0  0  0  0
   23.1228   75.6149    2.2947 C   0  0  0  0  0  0  0  0  0  0  0  0
   22.7588   74.7463    4.0897 H   0  0  0  0  0  0  0  0  0  0  0  0
   21.5609   72.5701   -5.1770 O   0  0  0  0  0  0  0  0  0  0  0  0
   20.3815   73.4912   -5.7888 P   0  0  2  0  0  0  0  0  0  0  0  0
   21.1876   74.7109   -6.4838 O   0  0  0  0  0  0  0  0  0  0  0  0
   19.3531   73.9228   -4.7838 O   0  0  0  0  0  0  0  0  0  0  0  0
   19.7932   72.6361   -7.0237 O   0  0  0  0  0  0  0  0  0  0  0  0
   19.0079   70.6291   -6.0417 O   0  0  0  0  0  0  0  0  0  0  0  0
   17.8140   70.1663   -9.9696 O   0  0  0  0  0  0  0  0  0  0  0  0
   20.4539   71.2485   -9.3420 O   0  0  0  0  0  0  0  0  0  0  0  0
   15.8683   70.8647   -7.9257 O   0  0  0  0  0  0  0  0  0  0  0  0
   18.1218   70.8892   -8.7777 C   0  0  2  0  0  0  0  0  0  0  0  0
   19.5814   70.6450   -8.3937 C   0  0  2  0  0  0  0  0  0  0  0  0
   17.1899   70.3932   -7.6698 C   0  0  1  0  0  0  0  0  0  0  0  0
   19.8844   71.2127   -7.0063 C   0  0  1  0  0  0  0  0  0  0  0  0
   17.6324   70.9013   -6.3006 C   0  0  1  0  0  0  0  0  0  0  0  0
   18.3940   70.4646  -10.6878 H   0  0  0  0  0  0  0  0  0  0  0  0
   20.2670   70.8932  -10.2247 H   0  0  0  0  0  0  0  0  0  0  0  0
   15.5747   70.5484   -8.7944 H   0  0  0  0  0  0  0  0  0  0  0  0
   17.3359   70.6061   -3.9927 O   0  0  0  0  0  0  0  0  0  0  0  0
   16.1070   69.2756   -5.3779 O   0  0  0  0  0  0  0  0  0  0  0  0
   16.9323   70.1605   -5.2082 C   0  0  0  0  0  0  0  0  0  0  0  0
  1  4  1  0
  1 24  1  0
  1  2  1  6
  1  3  2  0
 25 28  1  0
 25 24  1  0
 25 26  1  6
 25 27  2  0
  6 11  1  0
  6 12  1  0
 29 36  1  0
 29 37  1  0
  9  7  1  1
  7 13  1  0
 10  8  1  1
  8 14  1  0
  4  5  1  0
 36 28  1  6
 33 30  1  6
 30 38  1  0
 34 31  1  6
 31 39  1  0
 35 32  1  6
 32 40  1  0
 41 43  1  0
 15 19  2  0
 42 43  2  0
 16 22  2  0
 12 17  1  6
 17 19  1  0
 17 20  1  0
 18 19  1  0
 18 22  1  0
 18 23  1  0
  9 10  1  0
  9 11  1  0
 10 12  1  0
 11  5  1  6
 33 34  1  0
 33 35  1  0
 34 36  1  0
 35 37  1  0
 37 43  1  1
 20 21  2  0
 21 22  1  0
M  CHG  3   2  -1  26  -1  41  -1
M  END
>  <COMPND>  (163) 
    udp_gluA.pdb 

>  <AUTHOR>  (163) 
    GENERATED BY OPEN BABEL 3.1.1

>  <MASTER>  (163) 
        0    0    0    0    0    0    0    0   56    0   56    0

>  <minimizedAffinity>  (163) 
-8.65928

>  <CNNscore>  (163) 
0.5490140319

>  <CNNaffinity>  (163) 
4.2729482651

>  <CNN_VS>  (163) 
2.3459086418

>  <CNNaffinity_variance>  (163) 
0.1663563699

$$$$
164
     RDKit          3D

 43 45  0  0  0  0  0  0  0  0999 V2000
   17.8382   74.9067   -4.6201 P   0  0  2  0  0  0  0  0  0  0  0  0
   18.9036   75.5606   -3.5923 O   0  0  0  0  0  0  0  0  0  0  0  0
   16.4341   75.4195   -4.4885 O   0  0  0  0  0  0  0  0  0  0  0  0
   18.0265   73.3131   -4.4131 O   0  0  0  0  0  0  0  0  0  0  0  0
   18.5658   72.8493   -3.1889 C   0  0  0  0  0  0  0  0  0  0  0  0
   17.4454   70.9532   -4.1516 O   0  0  0  0  0  0  0  0  0  0  0  0
   18.7164   69.3311   -1.9734 O   0  0  0  0  0  0  0  0  0  0  0  0
   20.3078   68.7946   -4.1218 O   0  0  0  0  0  0  0  0  0  0  0  0
   19.2413   70.4473   -2.6924 C   0  0  1  0  0  0  0  0  0  0  0  0
   19.6275   70.0319   -4.0962 C   0  0  2  0  0  0  0  0  0  0  0  0
   18.0982   71.4193   -2.9509 C   0  0  1  0  0  0  0  0  0  0  0  0
   18.2773   69.9714   -4.7898 C   0  0  2  0  0  0  0  0  0  0  0  0
   19.4286   68.6961   -1.7966 H   0  0  0  0  0  0  0  0  0  0  0  0
   21.1611   68.8853   -3.6682 H   0  0  0  0  0  0  0  0  0  0  0  0
   16.1313   69.7409   -6.6114 O   0  0  0  0  0  0  0  0  0  0  0  0
   18.7347   71.1604  -10.1400 O   0  0  0  0  0  0  0  0  0  0  0  0
   18.3666   70.2743   -6.1902 N   0  0  0  0  0  0  0  0  0  0  0  0
   17.4303   70.4472   -8.3673 N   0  0  0  0  0  0  0  0  0  0  0  0
   17.2294   70.1247   -7.0187 C   0  0  0  0  0  0  0  0  0  0  0  0
   19.5692   70.7152   -6.7292 C   0  0  0  0  0  0  0  0  0  0  0  0
   19.7453   71.0188   -8.0166 C   0  0  0  0  0  0  0  0  0  0  0  0
   18.6071   70.8890   -8.9500 C   0  0  0  0  0  0  0  0  0  0  0  0
   16.6534   70.3490   -8.9641 H   0  0  0  0  0  0  0  0  0  0  0  0
   18.5183   75.1685   -6.0629 O   0  0  0  0  0  0  0  0  0  0  0  0
   18.6494   76.5167   -6.9455 P   0  0  2  0  0  0  0  0  0  0  0  0
   20.0912   76.3505   -7.6625 O   0  0  0  0  0  0  0  0  0  0  0  0
   18.4927   77.7856   -6.1586 O   0  0  0  0  0  0  0  0  0  0  0  0
   17.5782   76.3314   -8.1374 O   0  0  0  0  0  0  0  0  0  0  0  0
   15.4805   75.2437   -8.2979 O   0  0  0  0  0  0  0  0  0  0  0  0
   17.1442   74.4098  -11.9864 O   0  0  0  0  0  0  0  0  0  0  0  0
   18.7668   74.2590   -9.5618 O   0  0  0  0  0  0  0  0  0  0  0  0
   15.0635   76.4258  -11.7462 O   0  0  0  0  0  0  0  0  0  0  0  0
   16.9026   75.1822  -10.8103 C   0  0  2  0  0  0  0  0  0  0  0  0
   17.3504   74.3936   -9.5793 C   0  0  2  0  0  0  0  0  0  0  0  0
   15.4026   75.4762  -10.7374 C   0  0  1  0  0  0  0  0  0  0  0  0
   16.8999   75.0861   -8.2924 C   0  0  1  0  0  0  0  0  0  0  0  0
   15.0125   76.0487   -9.3777 C   0  0  1  0  0  0  0  0  0  0  0  0
   18.0913   74.2108  -12.0539 H   0  0  0  0  0  0  0  0  0  0  0  0
   19.0596   73.8206  -10.3757 H   0  0  0  0  0  0  0  0  0  0  0  0
   15.3068   76.0737  -12.6166 H   0  0  0  0  0  0  0  0  0  0  0  0
   12.9727   75.0413   -9.9485 O   0  0  0  0  0  0  0  0  0  0  0  0
   12.8982   76.7775   -8.4724 O   0  0  0  0  0  0  0  0  0  0  0  0
   13.5296   76.0231   -9.1971 C   0  0  0  0  0  0  0  0  0  0  0  0
  1  4  1  0
  1 24  1  0
  1  2  1  1
  1  3  2  0
 25 28  1  0
 25 24  1  0
 25 26  1  6
 25 27  2  0
  6 11  1  0
  6 12  1  0
 29 36  1  0
 29 37  1  0
  9  7  1  1
  7 13  1  0
 10  8  1  1
  8 14  1  0
  4  5  1  0
 36 28  1  6
 33 30  1  6
 30 38  1  0
 34 31  1  1
 31 39  1  0
 35 32  1  6
 32 40  1  0
 41 43  1  0
 15 19  2  0
 42 43  2  0
 16 22  2  0
 12 17  1  6
 17 19  1  0
 17 20  1  0
 18 19  1  0
 18 22  1  0
 18 23  1  0
  9 10  1  0
  9 11  1  0
 10 12  1  0
 11  5  1  6
 33 34  1  0
 33 35  1  0
 34 36  1  0
 35 37  1  0
 37 43  1  6
 20 21  2  0
 21 22  1  0
M  CHG  3   2  -1  26  -1  41  -1
M  END
>  <COMPND>  (164) 
    udp_gluA.pdb 

>  <AUTHOR>  (164) 
    GENERATED BY OPEN BABEL 3.1.1

>  <MASTER>  (164) 
        0    0    0    0    0    0    0    0   56    0   56    0

>  <minimizedAffinity>  (164) 
-6.56559

>  <CNNscore>  (164) 
0.5299535990

>  <CNNaffinity>  (164) 
4.4655704498

>  <CNN_VS>  (164) 
2.3665452003

>  <CNNaffinity_variance>  (164) 
0.3562102914

$$$$
165
     RDKit          3D

 43 45  0  0  0  0  0  0  0  0999 V2000
   21.1275   74.8556   -4.0572 P   0  0  2  0  0  0  0  0  0  0  0  0
   22.1925   74.3502   -5.1659 O   0  0  0  0  0  0  0  0  0  0  0  0
   21.3231   76.2676   -3.5883 O   0  0  0  0  0  0  0  0  0  0  0  0
   21.1935   73.7182   -2.9083 O   0  0  0  0  0  0  0  0  0  0  0  0
   20.0819   72.8567   -2.7453 C   0  0  0  0  0  0  0  0  0  0  0  0
   19.4362   70.7644   -1.7537 O   0  0  0  0  0  0  0  0  0  0  0  0
   22.0536   69.6959   -2.7532 O   0  0  0  0  0  0  0  0  0  0  0  0
   20.2805   68.7476   -4.5952 O   0  0  0  0  0  0  0  0  0  0  0  0
   21.1731   70.6421   -3.3597 C   0  0  1  0  0  0  0  0  0  0  0  0
   19.9515   69.9405   -3.9146 C   0  0  2  0  0  0  0  0  0  0  0  0
   20.5729   71.5007   -2.2548 C   0  0  1  0  0  0  0  0  0  0  0  0
   19.1337   69.6908   -2.6589 C   0  0  2  0  0  0  0  0  0  0  0  0
   22.4493   69.1357   -3.4397 H   0  0  0  0  0  0  0  0  0  0  0  0
   20.8005   68.9598   -5.3867 H   0  0  0  0  0  0  0  0  0  0  0  0
   17.6954   67.4423   -3.5818 O   0  0  0  0  0  0  0  0  0  0  0  0
   13.7185   69.7719   -3.6165 O   0  0  0  0  0  0  0  0  0  0  0  0
   17.7216   69.6820   -2.9174 N   0  0  0  0  0  0  0  0  0  0  0  0
   15.7162   68.6050   -3.5992 N   0  0  0  0  0  0  0  0  0  0  0  0
   17.0959   68.4999   -3.3791 C   0  0  0  0  0  0  0  0  0  0  0  0
   16.9717   70.8337   -2.7121 C   0  0  0  0  0  0  0  0  0  0  0  0
   15.6572   70.9185   -2.9261 C   0  0  0  0  0  0  0  0  0  0  0  0
   14.9275   69.7283   -3.4100 C   0  0  0  0  0  0  0  0  0  0  0  0
   15.2589   67.7954   -3.9228 H   0  0  0  0  0  0  0  0  0  0  0  0
   19.7031   74.5730   -4.7670 O   0  0  0  0  0  0  0  0  0  0  0  0
   19.1719   74.9162   -6.2549 P   0  0  2  0  0  0  0  0  0  0  0  0
   20.1818   76.0809   -6.7486 O   0  0  0  0  0  0  0  0  0  0  0  0
   17.7191   75.2892   -6.3193 O   0  0  0  0  0  0  0  0  0  0  0  0
   19.5722   73.6281   -7.1397 O   0  0  0  0  0  0  0  0  0  0  0  0
   18.3356   71.6999   -6.5379 O   0  0  0  0  0  0  0  0  0  0  0  0
   21.0556   70.1473   -9.2323 O   0  0  0  0  0  0  0  0  0  0  0  0
   21.9003   72.1095   -7.2396 O   0  0  0  0  0  0  0  0  0  0  0  0
   18.2908   70.5659  -10.0271 O   0  0  0  0  0  0  0  0  0  0  0  0
   20.1983   71.1424   -8.6729 C   0  0  2  0  0  0  0  0  0  0  0  0
   20.6387   71.4514   -7.2418 C   0  0  2  0  0  0  0  0  0  0  0  0
   18.7691   70.5956   -8.6837 C   0  0  1  0  0  0  0  0  0  0  0  0
   19.6134   72.3377   -6.5332 C   0  0  1  0  0  0  0  0  0  0  0  0
   17.8328   71.4674   -7.8518 C   0  0  1  0  0  0  0  0  0  0  0  0
   21.9696   70.4726   -9.2358 H   0  0  0  0  0  0  0  0  0  0  0  0
   22.5556   71.5528   -7.6879 H   0  0  0  0  0  0  0  0  0  0  0  0
   18.8781   70.0144  -10.5673 H   0  0  0  0  0  0  0  0  0  0  0  0
   16.6167   70.0156   -6.4681 O   0  0  0  0  0  0  0  0  0  0  0  0
   15.5448   70.8471   -8.3007 O   0  0  0  0  0  0  0  0  0  0  0  0
   16.5398   70.7637   -7.5965 C   0  0  0  0  0  0  0  0  0  0  0  0
  1  4  1  0
  1 24  1  0
  1  2  1  6
  1  3  2  0
 25 28  1  0
 25 24  1  0
 25 26  1  6
 25 27  2  0
  6 11  1  0
  6 12  1  0
 29 36  1  0
 29 37  1  0
  9  7  1  1
  7 13  1  0
 10  8  1  1
  8 14  1  0
  4  5  1  0
 36 28  1  6
 33 30  1  1
 30 38  1  0
 34 31  1  6
 31 39  1  0
 35 32  1  6
 32 40  1  0
 41 43  1  0
 15 19  2  0
 42 43  2  0
 16 22  2  0
 12 17  1  6
 17 19  1  0
 17 20  1  0
 18 19  1  0
 18 22  1  0
 18 23  1  0
  9 10  1  0
  9 11  1  0
 10 12  1  0
 11  5  1  6
 33 34  1  0
 33 35  1  0
 34 36  1  0
 35 37  1  0
 37 43  1  1
 20 21  2  0
 21 22  1  0
M  CHG  3   2  -1  26  -1  41  -1
M  END
>  <COMPND>  (165) 
    udp_gluA.pdb 

>  <AUTHOR>  (165) 
    GENERATED BY OPEN BABEL 3.1.1

>  <MASTER>  (165) 
        0    0    0    0    0    0    0    0   56    0   56    0

>  <minimizedAffinity>  (165) 
-6.55473

>  <CNNscore>  (165) 
0.5272486806

>  <CNNaffinity>  (165) 
4.4231877327

>  <CNN_VS>  (165) 
2.3321199417

>  <CNNaffinity_variance>  (165) 
0.3760422468

$$$$
166
     RDKit          3D

 43 45  0  0  0  0  0  0  0  0999 V2000
   21.7302   73.5808   -5.7843 P   0  0  2  0  0  0  0  0  0  0  0  0
   21.4087   74.8939   -6.6737 O   0  0  0  0  0  0  0  0  0  0  0  0
   23.1653   73.1424   -5.7975 O   0  0  0  0  0  0  0  0  0  0  0  0
   20.6567   72.4873   -6.3037 O   0  0  0  0  0  0  0  0  0  0  0  0
   19.7653   72.8545   -7.3405 C   0  0  0  0  0  0  0  0  0  0  0  0
   19.6115   70.4592   -7.2127 O   0  0  0  0  0  0  0  0  0  0  0  0
   17.4495   70.6737   -9.2794 O   0  0  0  0  0  0  0  0  0  0  0  0
   16.0362   70.3438   -6.9707 O   0  0  0  0  0  0  0  0  0  0  0  0
   17.7541   71.5521   -8.1959 C   0  0  1  0  0  0  0  0  0  0  0  0
   17.3145   70.9380   -6.8837 C   0  0  2  0  0  0  0  0  0  0  0  0
   19.2678   71.5942   -8.0366 C   0  0  1  0  0  0  0  0  0  0  0  0
   18.4149   69.9227   -6.6263 C   0  0  2  0  0  0  0  0  0  0  0  0
   16.4876   70.6305   -9.4004 H   0  0  0  0  0  0  0  0  0  0  0  0
   15.3708   71.0310   -7.1349 H   0  0  0  0  0  0  0  0  0  0  0  0
   16.5511   68.7128   -4.8832 O   0  0  0  0  0  0  0  0  0  0  0  0
   19.3850   69.1257   -1.2717 O   0  0  0  0  0  0  0  0  0  0  0  0
   18.6399   69.7017   -5.2258 N   0  0  0  0  0  0  0  0  0  0  0  0
   17.9639   68.9205   -3.0859 N   0  0  0  0  0  0  0  0  0  0  0  0
   17.6383   69.0858   -4.4386 C   0  0  0  0  0  0  0  0  0  0  0  0
   19.8412   70.0914   -4.6463 C   0  0  0  0  0  0  0  0  0  0  0  0
   20.1371   69.9271   -3.3554 C   0  0  0  0  0  0  0  0  0  0  0  0
   19.1446   69.2923   -2.4637 C   0  0  0  0  0  0  0  0  0  0  0  0
   17.2814   68.4958   -2.5174 H   0  0  0  0  0  0  0  0  0  0  0  0
   21.1624   73.9828   -4.3252 O   0  0  0  0  0  0  0  0  0  0  0  0
   21.7834   74.9245   -3.1671 P   0  0  2  0  0  0  0  0  0  0  0  0
   20.5689   75.9382   -2.8238 O   0  0  0  0  0  0  0  0  0  0  0  0
   23.0669   75.6039   -3.5481 O   0  0  0  0  0  0  0  0  0  0  0  0
   21.8915   73.9659   -1.8742 O   0  0  0  0  0  0  0  0  0  0  0  0
   22.2534   71.6327   -1.6886 O   0  0  0  0  0  0  0  0  0  0  0  0
   19.7381   72.3503    1.5092 O   0  0  0  0  0  0  0  0  0  0  0  0
   19.2498   73.6244   -1.0739 O   0  0  0  0  0  0  0  0  0  0  0  0
   22.5770   71.9117    1.9555 O   0  0  0  0  0  0  0  0  0  0  0  0
   20.7596   72.6570    0.5603 C   0  0  2  0  0  0  0  0  0  0  0  0
   20.1853   72.5750   -0.8543 C   0  0  2  0  0  0  0  0  0  0  0  0
   21.8891   71.6395    0.7360 C   0  0  1  0  0  0  0  0  0  0  0  0
   21.2955   72.6702   -1.9018 C   0  0  1  0  0  0  0  0  0  0  0  0
   22.8888   71.7128   -0.4147 C   0  0  1  0  0  0  0  0  0  0  0  0
   19.0093   72.9840    1.4163 H   0  0  0  0  0  0  0  0  0  0  0  0
   18.5426   73.5702   -0.4125 H   0  0  0  0  0  0  0  0  0  0  0  0
   21.9519   71.8684    2.6959 H   0  0  0  0  0  0  0  0  0  0  0  0
   24.0586   70.1221   -1.6807 O   0  0  0  0  0  0  0  0  0  0  0  0
   24.2261   69.9731    0.5884 O   0  0  0  0  0  0  0  0  0  0  0  0
   23.7882   70.5197   -0.4127 C   0  0  0  0  0  0  0  0  0  0  0  0
  1  4  1  0
  1 24  1  0
  1  2  1  6
  1  3  2  0
 25 28  1  0
 25 24  1  0
 25 26  1  1
 25 27  2  0
  6 11  1  0
  6 12  1  0
 29 36  1  0
 29 37  1  0
  9  7  1  6
  7 13  1  0
 10  8  1  6
  8 14  1  0
  4  5  1  0
 36 28  1  1
 33 30  1  1
 30 38  1  0
 34 31  1  6
 31 39  1  0
 35 32  1  1
 32 40  1  0
 41 43  1  0
 15 19  2  0
 42 43  2  0
 16 22  2  0
 12 17  1  1
 17 19  1  0
 17 20  1  0
 18 19  1  0
 18 22  1  0
 18 23  1  0
  9 10  1  0
  9 11  1  0
 10 12  1  0
 11  5  1  1
 33 34  1  0
 33 35  1  0
 34 36  1  0
 35 37  1  0
 37 43  1  1
 20 21  2  0
 21 22  1  0
M  CHG  3   2  -1  26  -1  41  -1
M  END
>  <COMPND>  (166) 
    udp_gluA.pdb 

>  <AUTHOR>  (166) 
    GENERATED BY OPEN BABEL 3.1.1

>  <MASTER>  (166) 
        0    0    0    0    0    0    0    0   56    0   56    0

>  <minimizedAffinity>  (166) 
-8.16076

>  <CNNscore>  (166) 
0.5105671287

>  <CNNaffinity>  (166) 
4.3230638504

>  <CNN_VS>  (166) 
2.2072143555

>  <CNNaffinity_variance>  (166) 
0.3429177403

$$$$
167
     RDKit          3D

 43 45  0  0  0  0  0  0  0  0999 V2000
   22.5315   72.8934   -4.0163 P   0  0  2  0  0  0  0  0  0  0  0  0
   23.6122   72.8480   -5.2200 O   0  0  0  0  0  0  0  0  0  0  0  0
   22.6813   74.0514   -3.0737 O   0  0  0  0  0  0  0  0  0  0  0  0
   22.6343   71.4242   -3.3462 O   0  0  0  0  0  0  0  0  0  0  0  0
   23.3815   71.2762   -2.1528 C   0  0  0  0  0  0  0  0  0  0  0  0
   22.8605   71.0792    0.1855 O   0  0  0  0  0  0  0  0  0  0  0  0
   20.3349   69.7157   -0.6827 O   0  0  0  0  0  0  0  0  0  0  0  0
   19.4805   72.2397   -0.1033 O   0  0  0  0  0  0  0  0  0  0  0  0
   21.0339   70.7989   -1.2964 C   0  0  1  0  0  0  0  0  0  0  0  0
   20.8239   72.0731   -0.5060 C   0  0  2  0  0  0  0  0  0  0  0  0
   22.5264   70.5558   -1.1183 C   0  0  1  0  0  0  0  0  0  0  0  0
   21.7662   71.8743    0.6689 C   0  0  2  0  0  0  0  0  0  0  0  0
   19.3790   69.8488   -0.7836 H   0  0  0  0  0  0  0  0  0  0  0  0
   18.9211   72.3627   -0.8868 H   0  0  0  0  0  0  0  0  0  0  0  0
   21.8975   72.5450    3.4093 O   0  0  0  0  0  0  0  0  0  0  0  0
   23.7534   76.6647    2.4994 O   0  0  0  0  0  0  0  0  0  0  0  0
   22.2792   73.1155    1.1760 N   0  0  0  0  0  0  0  0  0  0  0  0
   22.8208   74.5966    2.9534 N   0  0  0  0  0  0  0  0  0  0  0  0
   22.3005   73.3533    2.5707 C   0  0  0  0  0  0  0  0  0  0  0  0
   22.7553   74.0802    0.2965 C   0  0  0  0  0  0  0  0  0  0  0  0
   23.2484   75.2607    0.6763 C   0  0  0  0  0  0  0  0  0  0  0  0
   23.3054   75.5883    2.1160 C   0  0  0  0  0  0  0  0  0  0  0  0
   22.8440   74.7858    3.9194 H   0  0  0  0  0  0  0  0  0  0  0  0
   21.1168   72.8388   -4.7963 O   0  0  0  0  0  0  0  0  0  0  0  0
   19.7063   73.5664   -4.4887 P   0  0  2  0  0  0  0  0  0  0  0  0
   20.0112   75.1206   -4.8232 O   0  0  0  0  0  0  0  0  0  0  0  0
   19.1773   73.3240   -3.1047 O   0  0  0  0  0  0  0  0  0  0  0  0
   18.7272   73.0791   -5.6745 O   0  0  0  0  0  0  0  0  0  0  0  0
   19.3541   72.2262   -7.7932 O   0  0  0  0  0  0  0  0  0  0  0  0
   15.6761   73.9156   -8.6218 O   0  0  0  0  0  0  0  0  0  0  0  0
   17.5879   75.3004   -6.9009 O   0  0  0  0  0  0  0  0  0  0  0  0
   15.9372   71.0296   -8.3896 O   0  0  0  0  0  0  0  0  0  0  0  0
   16.6569   73.2573   -7.8202 C   0  0  2  0  0  0  0  0  0  0  0  0
   17.8898   74.1511   -7.6835 C   0  0  2  0  0  0  0  0  0  0  0  0
   17.0267   71.9423   -8.5101 C   0  0  1  0  0  0  0  0  0  0  0  0
   19.0455   73.3926   -7.0292 C   0  0  1  0  0  0  0  0  0  0  0  0
   18.2642   71.3108   -7.8790 C   0  0  1  0  0  0  0  0  0  0  0  0
   15.4257   74.7541   -8.2030 H   0  0  0  0  0  0  0  0  0  0  0  0
   16.8552   75.7863   -7.3101 H   0  0  0  0  0  0  0  0  0  0  0  0
   15.1432   71.4196   -8.7874 H   0  0  0  0  0  0  0  0  0  0  0  0
   17.8161   69.3846   -9.1402 O   0  0  0  0  0  0  0  0  0  0  0  0
   19.9795   70.1014   -9.0691 O   0  0  0  0  0  0  0  0  0  0  0  0
   18.8068   70.2236   -8.7484 C   0  0  0  0  0  0  0  0  0  0  0  0
  1  4  1  0
  1 24  1  0
  1  2  1  6
  1  3  2  0
 25 28  1  0
 25 24  1  0
 25 26  1  6
 25 27  2  0
  6 11  1  0
  6 12  1  0
 29 36  1  0
 29 37  1  0
  9  7  1  1
  7 13  1  0
 10  8  1  1
  8 14  1  0
  4  5  1  0
 36 28  1  1
 33 30  1  6
 30 38  1  0
 34 31  1  1
 31 39  1  0
 35 32  1  1
 32 40  1  0
 41 43  1  0
 15 19  2  0
 42 43  2  0
 16 22  2  0
 12 17  1  6
 17 19  1  0
 17 20  1  0
 18 19  1  0
 18 22  1  0
 18 23  1  0
  9 10  1  0
  9 11  1  0
 10 12  1  0
 11  5  1  6
 33 34  1  0
 33 35  1  0
 34 36  1  0
 35 37  1  0
 37 43  1  6
 20 21  2  0
 21 22  1  0
M  CHG  3   2  -1  26  -1  41  -1
M  END
>  <COMPND>  (167) 
    udp_gluA.pdb 

>  <AUTHOR>  (167) 
    GENERATED BY OPEN BABEL 3.1.1

>  <MASTER>  (167) 
        0    0    0    0    0    0    0    0   56    0   56    0

>  <minimizedAffinity>  (167) 
-7.64175

>  <CNNscore>  (167) 
0.4921795726

>  <CNNaffinity>  (167) 
4.0987939835

>  <CNN_VS>  (167) 
2.0173425674

>  <CNNaffinity_variance>  (167) 
0.1099936143

$$$$
168
     RDKit          3D

 43 45  0  0  0  0  0  0  0  0999 V2000
   19.5556   69.7647   -2.6790 P   0  0  2  0  0  0  0  0  0  0  0  0
   19.6188   69.2946   -1.1318 O   0  0  0  0  0  0  0  0  0  0  0  0
   20.4935   69.0408   -3.5999 O   0  0  0  0  0  0  0  0  0  0  0  0
   19.7429   71.3701   -2.6053 O   0  0  0  0  0  0  0  0  0  0  0  0
   18.6144   72.1693   -2.3015 C   0  0  0  0  0  0  0  0  0  0  0  0
   20.0100   72.5582   -0.3835 O   0  0  0  0  0  0  0  0  0  0  0  0
   19.4023   75.4698   -0.7640 O   0  0  0  0  0  0  0  0  0  0  0  0
   21.8929   75.2341   -1.8491 O   0  0  0  0  0  0  0  0  0  0  0  0
   19.5934   74.4507   -1.7456 C   0  0  1  0  0  0  0  0  0  0  0  0
   21.0608   74.0930   -1.8510 C   0  0  2  0  0  0  0  0  0  0  0  0
   18.9889   73.1610   -1.2076 C   0  0  1  0  0  0  0  0  0  0  0  0
   21.2617   73.2207   -0.6235 C   0  0  2  0  0  0  0  0  0  0  0  0
   19.7806   76.3037   -1.0853 H   0  0  0  0  0  0  0  0  0  0  0  0
   21.7276   75.7561   -2.6504 H   0  0  0  0  0  0  0  0  0  0  0  0
   22.3494   71.6297    1.4409 O   0  0  0  0  0  0  0  0  0  0  0  0
   25.1807   69.4575   -1.4761 O   0  0  0  0  0  0  0  0  0  0  0  0
   22.2842   72.2316   -0.8156 N   0  0  0  0  0  0  0  0  0  0  0  0
   23.7592   70.5501   -0.0137 N   0  0  0  0  0  0  0  0  0  0  0  0
   22.7617   71.4864    0.2884 C   0  0  0  0  0  0  0  0  0  0  0  0
   22.8018   72.0066   -2.0854 C   0  0  0  0  0  0  0  0  0  0  0  0
   23.7524   71.1105   -2.3578 C   0  0  0  0  0  0  0  0  0  0  0  0
   24.3061   70.2910   -1.2601 C   0  0  0  0  0  0  0  0  0  0  0  0
   24.1089   70.0207    0.7391 H   0  0  0  0  0  0  0  0  0  0  0  0
   17.9900   69.5980   -3.0452 O   0  0  0  0  0  0  0  0  0  0  0  0
   17.2655   69.0307   -4.3745 P   0  0  2  0  0  0  0  0  0  0  0  0
   15.8243   69.7674   -4.3531 O   0  0  0  0  0  0  0  0  0  0  0  0
   17.1932   67.5327   -4.4448 O   0  0  0  0  0  0  0  0  0  0  0  0
   18.0575   69.7209   -5.5986 O   0  0  0  0  0  0  0  0  0  0  0  0
   18.9929   71.8932   -5.7238 O   0  0  0  0  0  0  0  0  0  0  0  0
   17.9872   71.1824   -9.6673 O   0  0  0  0  0  0  0  0  0  0  0  0
   16.1659   70.4201   -7.5141 O   0  0  0  0  0  0  0  0  0  0  0  0
   20.7622   71.0186   -8.8168 O   0  0  0  0  0  0  0  0  0  0  0  0
   18.4061   70.8378   -8.3468 C   0  0  2  0  0  0  0  0  0  0  0  0
   17.3207   71.2344   -7.3458 C   0  0  2  0  0  0  0  0  0  0  0  0
   19.7044   71.5918   -8.0507 C   0  0  1  0  0  0  0  0  0  0  0  0
   17.8241   71.0936   -5.9086 C   0  0  1  0  0  0  0  0  0  0  0  0
   20.0723   71.5081   -6.5721 C   0  0  1  0  0  0  0  0  0  0  0  0
   17.1635   70.7149   -9.8778 H   0  0  0  0  0  0  0  0  0  0  0  0
   15.8413   70.5044   -8.4240 H   0  0  0  0  0  0  0  0  0  0  0  0
   20.5405   71.0654   -9.7600 H   0  0  0  0  0  0  0  0  0  0  0  0
   20.6708   73.4178   -5.3487 O   0  0  0  0  0  0  0  0  0  0  0  0
   22.2716   72.4940   -6.6840 O   0  0  0  0  0  0  0  0  0  0  0  0
   21.1360   72.5011   -6.2331 C   0  0  0  0  0  0  0  0  0  0  0  0
  1  4  1  0
  1 24  1  0
  1  2  1  1
  1  3  2  0
 25 28  1  0
 25 24  1  0
 25 26  1  1
 25 27  2  0
  6 11  1  0
  6 12  1  0
 29 36  1  0
 29 37  1  0
  9  7  1  1
  7 13  1  0
 10  8  1  1
  8 14  1  0
  4  5  1  0
 36 28  1  6
 33 30  1  6
 30 38  1  0
 34 31  1  1
 31 39  1  0
 35 32  1  6
 32 40  1  0
 41 43  1  0
 15 19  2  0
 42 43  2  0
 16 22  2  0
 12 17  1  6
 17 19  1  0
 17 20  1  0
 18 19  1  0
 18 22  1  0
 18 23  1  0
  9 10  1  0
  9 11  1  0
 10 12  1  0
 11  5  1  6
 33 34  1  0
 33 35  1  0
 34 36  1  0
 35 37  1  0
 37 43  1  6
 20 21  2  0
 21 22  1  0
M  CHG  3   2  -1  26  -1  41  -1
M  END
>  <COMPND>  (168) 
    udp_gluA.pdb 

>  <AUTHOR>  (168) 
    GENERATED BY OPEN BABEL 3.1.1

>  <MASTER>  (168) 
        0    0    0    0    0    0    0    0   56    0   56    0

>  <minimizedAffinity>  (168) 
-8.40010

>  <CNNscore>  (168) 
0.4909901023

>  <CNNaffinity>  (168) 
4.3012261391

>  <CNN_VS>  (168) 
2.1118595600

>  <CNNaffinity_variance>  (168) 
0.3181348443

$$$$
169
     RDKit          3D

 43 45  0  0  0  0  0  0  0  0999 V2000
   21.7235   72.8975   -6.1976 P   0  0  2  0  0  0  0  0  0  0  0  0
   20.7202   74.1353   -6.4808 O   0  0  0  0  0  0  0  0  0  0  0  0
   23.1547   73.1427   -6.5761 O   0  0  0  0  0  0  0  0  0  0  0  0
   21.0086   71.6430   -6.9276 O   0  0  0  0  0  0  0  0  0  0  0  0
   20.1980   71.8926   -8.0613 C   0  0  0  0  0  0  0  0  0  0  0  0
   18.9455   70.1024   -7.0594 O   0  0  0  0  0  0  0  0  0  0  0  0
   17.5842   69.8170   -9.7159 O   0  0  0  0  0  0  0  0  0  0  0  0
   15.7453   71.1968   -8.2492 O   0  0  0  0  0  0  0  0  0  0  0  0
   18.0319   70.9993   -9.0523 C   0  0  1  0  0  0  0  0  0  0  0  0
   17.1071   71.3368   -7.9021 C   0  0  2  0  0  0  0  0  0  0  0  0
   19.3311   70.6693   -8.3303 C   0  0  1  0  0  0  0  0  0  0  0  0
   17.5458   70.3409   -6.8420 C   0  0  2  0  0  0  0  0  0  0  0  0
   16.7550   70.0032  -10.1845 H   0  0  0  0  0  0  0  0  0  0  0  0
   15.5153   71.8527   -8.9266 H   0  0  0  0  0  0  0  0  0  0  0  0
   16.0720   69.0124   -4.8322 O   0  0  0  0  0  0  0  0  0  0  0  0
   16.8945   72.3532   -1.7652 O   0  0  0  0  0  0  0  0  0  0  0  0
   17.3588   70.8410   -5.5094 N   0  0  0  0  0  0  0  0  0  0  0  0
   16.4822   70.6781   -3.3069 N   0  0  0  0  0  0  0  0  0  0  0  0
   16.6006   70.0958   -4.5757 C   0  0  0  0  0  0  0  0  0  0  0  0
   17.9241   72.0551   -5.1386 C   0  0  0  0  0  0  0  0  0  0  0  0
   17.8026   72.5972   -3.9253 C   0  0  0  0  0  0  0  0  0  0  0  0
   17.0255   71.8829   -2.8912 C   0  0  0  0  0  0  0  0  0  0  0  0
   15.9571   70.1786   -2.6404 H   0  0  0  0  0  0  0  0  0  0  0  0
   21.4853   72.5890   -4.6288 O   0  0  0  0  0  0  0  0  0  0  0  0
   22.5035   72.6243   -3.3736 P   0  0  2  0  0  0  0  0  0  0  0  0
   22.9102   74.1878   -3.2711 O   0  0  0  0  0  0  0  0  0  0  0  0
   23.6708   71.6888   -3.5010 O   0  0  0  0  0  0  0  0  0  0  0  0
   21.5719   72.3606   -2.0833 O   0  0  0  0  0  0  0  0  0  0  0  0
   22.8880   73.0748   -0.2484 O   0  0  0  0  0  0  0  0  0  0  0  0
   19.3051   72.1586    1.5931 O   0  0  0  0  0  0  0  0  0  0  0  0
   20.3906   70.4152   -0.4845 O   0  0  0  0  0  0  0  0  0  0  0  0
   20.0470   74.9332    1.1436 O   0  0  0  0  0  0  0  0  0  0  0  0
   20.1474   72.6053    0.5306 C   0  0  2  0  0  0  0  0  0  0  0  0
   21.1041   71.4823    0.1293 C   0  0  2  0  0  0  0  0  0  0  0  0
   20.9324   73.8208    1.0285 C   0  0  1  0  0  0  0  0  0  0  0  0
   22.1699   71.9924   -0.8417 C   0  0  1  0  0  0  0  0  0  0  0  0
   22.0571   74.1902    0.0657 C   0  0  1  0  0  0  0  0  0  0  0  0
   18.7962   71.3864    1.2998 H   0  0  0  0  0  0  0  0  0  0  0  0
   19.7125   70.0868    0.1260 H   0  0  0  0  0  0  0  0  0  0  0  0
   19.3264   74.7111    1.7536 H   0  0  0  0  0  0  0  0  0  0  0  0
   22.9199   75.0823    2.0560 O   0  0  0  0  0  0  0  0  0  0  0  0
   23.7685   75.8907    0.1001 O   0  0  0  0  0  0  0  0  0  0  0  0
   23.0091   75.1483    0.7045 C   0  0  0  0  0  0  0  0  0  0  0  0
  1  4  1  0
  1 24  1  0
  1  2  1  6
  1  3  2  0
 25 28  1  0
 25 24  1  0
 25 26  1  1
 25 27  2  0
  6 11  1  0
  6 12  1  0
 29 36  1  0
 29 37  1  0
  9  7  1  1
  7 13  1  0
 10  8  1  6
  8 14  1  0
  4  5  1  0
 36 28  1  6
 33 30  1  1
 30 38  1  0
 34 31  1  6
 31 39  1  0
 35 32  1  6
 32 40  1  0
 41 43  1  0
 15 19  2  0
 42 43  2  0
 16 22  2  0
 12 17  1  1
 17 19  1  0
 17 20  1  0
 18 19  1  0
 18 22  1  0
 18 23  1  0
  9 10  1  0
  9 11  1  0
 10 12  1  0
 11  5  1  1
 33 34  1  0
 33 35  1  0
 34 36  1  0
 35 37  1  0
 37 43  1  1
 20 21  2  0
 21 22  1  0
M  CHG  3   2  -1  26  -1  41  -1
M  END
>  <COMPND>  (169) 
    udp_gluA.pdb 

>  <AUTHOR>  (169) 
    GENERATED BY OPEN BABEL 3.1.1

>  <MASTER>  (169) 
        0    0    0    0    0    0    0    0   56    0   56    0

>  <minimizedAffinity>  (169) 
-7.66183

>  <CNNscore>  (169) 
0.4711084366

>  <CNNaffinity>  (169) 
4.1025590897

>  <CNN_VS>  (169) 
1.9327502251

>  <CNNaffinity_variance>  (169) 
0.2850373685

$$$$
170
     RDKit          3D

 43 45  0  0  0  0  0  0  0  0999 V2000
   17.7849   74.8535   -3.8668 P   0  0  2  0  0  0  0  0  0  0  0  0
   16.2031   75.1795   -3.7652 O   0  0  0  0  0  0  0  0  0  0  0  0
   18.6683   76.0525   -4.0507 O   0  0  0  0  0  0  0  0  0  0  0  0
   17.8762   73.7290   -5.0265 O   0  0  0  0  0  0  0  0  0  0  0  0
   17.7648   74.1398   -6.3769 C   0  0  0  0  0  0  0  0  0  0  0  0
   19.2314   72.2356   -6.4129 O   0  0  0  0  0  0  0  0  0  0  0  0
   19.0500   72.3865   -9.4022 O   0  0  0  0  0  0  0  0  0  0  0  0
   17.3245   70.3621   -8.8019 O   0  0  0  0  0  0  0  0  0  0  0  0
   18.0470   72.6523   -8.4215 C   0  0  1  0  0  0  0  0  0  0  0  0
   17.5426   71.3563   -7.8230 C   0  0  2  0  0  0  0  0  0  0  0  0
   18.7213   73.3136   -7.2272 C   0  0  1  0  0  0  0  0  0  0  0  0
   18.6629   70.9955   -6.8624 C   0  0  2  0  0  0  0  0  0  0  0  0
   18.6430   71.9638  -10.1751 H   0  0  0  0  0  0  0  0  0  0  0  0
   16.6021   70.6386   -9.3883 H   0  0  0  0  0  0  0  0  0  0  0  0
   20.3411   69.6886   -5.0044 O   0  0  0  0  0  0  0  0  0  0  0  0
   16.7483   68.1947   -2.5337 O   0  0  0  0  0  0  0  0  0  0  0  0
   18.1925   70.2577   -5.7243 N   0  0  0  0  0  0  0  0  0  0  0  0
   18.5500   68.9449   -3.7762 N   0  0  0  0  0  0  0  0  0  0  0  0
   19.1190   69.6384   -4.8525 C   0  0  0  0  0  0  0  0  0  0  0  0
   16.8284   70.1546   -5.4801 C   0  0  0  0  0  0  0  0  0  0  0  0
   16.3011   69.4902   -4.4499 C   0  0  0  0  0  0  0  0  0  0  0  0
   17.2003   68.8139   -3.4922 C   0  0  0  0  0  0  0  0  0  0  0  0
   19.1752   68.5037   -3.1567 H   0  0  0  0  0  0  0  0  0  0  0  0
   18.0686   74.0086   -2.5183 O   0  0  0  0  0  0  0  0  0  0  0  0
   18.0281   74.4471   -0.9627 P   0  0  2  0  0  0  0  0  0  0  0  0
   16.8011   73.5768   -0.3649 O   0  0  0  0  0  0  0  0  0  0  0  0
   17.9013   75.9269   -0.7431 O   0  0  0  0  0  0  0  0  0  0  0  0
   19.3497   73.7852   -0.3164 O   0  0  0  0  0  0  0  0  0  0  0  0
   19.5631   71.4277   -0.2416 O   0  0  0  0  0  0  0  0  0  0  0  0
   22.4067   72.6169    2.5094 O   0  0  0  0  0  0  0  0  0  0  0  0
   19.7917   73.9168    2.4265 O   0  0  0  0  0  0  0  0  0  0  0  0
   23.2202   71.7021   -0.1273 O   0  0  0  0  0  0  0  0  0  0  0  0
   21.6033   72.7284    1.3347 C   0  0  2  0  0  0  0  0  0  0  0  0
   20.1247   72.7252    1.7237 C   0  0  2  0  0  0  0  0  0  0  0  0
   21.9185   71.5341    0.4311 C   0  0  1  0  0  0  0  0  0  0  0  0
   19.2336   72.6115    0.4860 C   0  0  1  0  0  0  0  0  0  0  0  0
   20.9104   71.4164   -0.7084 C   0  0  1  0  0  0  0  0  0  0  0  0
   22.2234   73.3653    3.0989 H   0  0  0  0  0  0  0  0  0  0  0  0
   20.3536   73.9955    3.2130 H   0  0  0  0  0  0  0  0  0  0  0  0
   23.8713   71.7785    0.5876 H   0  0  0  0  0  0  0  0  0  0  0  0
   19.9832   69.2863   -1.0322 O   0  0  0  0  0  0  0  0  0  0  0  0
   21.9197   69.7572   -2.1401 O   0  0  0  0  0  0  0  0  0  0  0  0
   21.0217   70.0862   -1.3797 C   0  0  0  0  0  0  0  0  0  0  0  0
  1  4  1  0
  1 24  1  0
  1  2  1  1
  1  3  2  0
 25 28  1  0
 25 24  1  0
 25 26  1  1
 25 27  2  0
  6 11  1  0
  6 12  1  0
 29 36  1  0
 29 37  1  0
  9  7  1  6
  7 13  1  0
 10  8  1  6
  8 14  1  0
  4  5  1  0
 36 28  1  6
 33 30  1  1
 30 38  1  0
 34 31  1  6
 31 39  1  0
 35 32  1  6
 32 40  1  0
 41 43  1  0
 15 19  2  0
 42 43  2  0
 16 22  2  0
 12 17  1  1
 17 19  1  0
 17 20  1  0
 18 19  1  0
 18 22  1  0
 18 23  1  0
  9 10  1  0
  9 11  1  0
 10 12  1  0
 11  5  1  1
 33 34  1  0
 33 35  1  0
 34 36  1  0
 35 37  1  0
 37 43  1  1
 20 21  2  0
 21 22  1  0
M  CHG  3   2  -1  26  -1  41  -1
M  END
>  <COMPND>  (170) 
    udp_gluA.pdb 

>  <AUTHOR>  (170) 
    GENERATED BY OPEN BABEL 3.1.1

>  <MASTER>  (170) 
        0    0    0    0    0    0    0    0   56    0   56    0

>  <minimizedAffinity>  (170) 
-7.32407

>  <CNNscore>  (170) 
0.4455896318

>  <CNNaffinity>  (170) 
4.1739168167

>  <CNN_VS>  (170) 
1.8598541021

>  <CNNaffinity_variance>  (170) 
0.5536063313

$$$$
171
     RDKit          3D

 43 45  0  0  0  0  0  0  0  0999 V2000
   22.7222   71.8711   -2.6317 P   0  0  2  0  0  0  0  0  0  0  0  0
   22.9521   73.4701   -2.5359 O   0  0  0  0  0  0  0  0  0  0  0  0
   23.7432   71.1319   -3.4461 O   0  0  0  0  0  0  0  0  0  0  0  0
   21.1892   71.7281   -3.1292 O   0  0  0  0  0  0  0  0  0  0  0  0
   20.6878   70.4344   -3.4112 C   0  0  0  0  0  0  0  0  0  0  0  0
   18.5014   71.0829   -4.1707 O   0  0  0  0  0  0  0  0  0  0  0  0
   17.4340   69.0262   -2.2675 O   0  0  0  0  0  0  0  0  0  0  0  0
   17.2928   67.7447   -4.6704 O   0  0  0  0  0  0  0  0  0  0  0  0
   18.6205   68.9936   -3.0611 C   0  0  1  0  0  0  0  0  0  0  0  0
   18.2725   68.7499   -4.5143 C   0  0  2  0  0  0  0  0  0  0  0  0
   19.1963   70.4024   -3.1033 C   0  0  1  0  0  0  0  0  0  0  0  0
   17.7815   70.1184   -4.9548 C   0  0  2  0  0  0  0  0  0  0  0  0
   17.0479   68.1369   -2.2259 H   0  0  0  0  0  0  0  0  0  0  0  0
   17.6538   66.8930   -4.3766 H   0  0  0  0  0  0  0  0  0  0  0  0
   15.8045   70.0313   -6.9698 O   0  0  0  0  0  0  0  0  0  0  0  0
   18.8519   71.0938  -10.2605 O   0  0  0  0  0  0  0  0  0  0  0  0
   18.0308   70.3682   -6.3463 N   0  0  0  0  0  0  0  0  0  0  0  0
   17.3244   70.5596   -8.6070 N   0  0  0  0  0  0  0  0  0  0  0  0
   16.9676   70.2990   -7.2774 C   0  0  0  0  0  0  0  0  0  0  0  0
   19.3152   70.6790   -6.7760 C   0  0  0  0  0  0  0  0  0  0  0  0
   19.6399   70.9250   -8.0468 C   0  0  0  0  0  0  0  0  0  0  0  0
   18.5875   70.8723   -9.0827 C   0  0  0  0  0  0  0  0  0  0  0  0
   16.6013   70.5153   -9.2738 H   0  0  0  0  0  0  0  0  0  0  0  0
   22.6444   71.4221   -1.0809 O   0  0  0  0  0  0  0  0  0  0  0  0
   21.4793   71.6157    0.0230 P   0  0  2  0  0  0  0  0  0  0  0  0
   22.3007   71.7135    1.4145 O   0  0  0  0  0  0  0  0  0  0  0  0
   20.4258   70.5463    0.0007 O   0  0  0  0  0  0  0  0  0  0  0  0
   20.9227   73.1091   -0.2270 O   0  0  0  0  0  0  0  0  0  0  0  0
   18.7493   73.4051    0.6663 O   0  0  0  0  0  0  0  0  0  0  0  0
   19.3389   76.9828   -1.3137 O   0  0  0  0  0  0  0  0  0  0  0  0
   20.1626   74.4606   -2.5361 O   0  0  0  0  0  0  0  0  0  0  0  0
   19.5332   76.8699    1.5846 O   0  0  0  0  0  0  0  0  0  0  0  0
   19.7240   75.8224   -0.5767 C   0  0  2  0  0  0  0  0  0  0  0  0
   19.3559   74.5676   -1.3689 C   0  0  2  0  0  0  0  0  0  0  0  0
   18.9816   75.8441    0.7613 C   0  0  1  0  0  0  0  0  0  0  0  0
   19.5409   73.3100   -0.5186 C   0  0  1  0  0  0  0  0  0  0  0  0
   19.1105   74.5104    1.4915 C   0  0  1  0  0  0  0  0  0  0  0  0
   19.7983   76.9906   -2.1682 H   0  0  0  0  0  0  0  0  0  0  0  0
   20.0503   75.2554   -3.0802 H   0  0  0  0  0  0  0  0  0  0  0  0
   19.4576   77.7240    1.1313 H   0  0  0  0  0  0  0  0  0  0  0  0
   17.1879   73.4836    2.3580 O   0  0  0  0  0  0  0  0  0  0  0  0
   18.1663   75.1022    3.6316 O   0  0  0  0  0  0  0  0  0  0  0  0
   18.1301   74.4242    2.6157 C   0  0  0  0  0  0  0  0  0  0  0  0
  1  4  1  0
  1 24  1  0
  1  2  1  1
  1  3  2  0
 25 28  1  0
 25 24  1  0
 25 26  1  1
 25 27  2  0
  6 11  1  0
  6 12  1  0
 29 36  1  0
 29 37  1  0
  9  7  1  1
  7 13  1  0
 10  8  1  1
  8 14  1  0
  4  5  1  0
 36 28  1  1
 33 30  1  6
 30 38  1  0
 34 31  1  6
 31 39  1  0
 35 32  1  1
 32 40  1  0
 41 43  1  0
 15 19  2  0
 42 43  2  0
 16 22  2  0
 12 17  1  6
 17 19  1  0
 17 20  1  0
 18 19  1  0
 18 22  1  0
 18 23  1  0
  9 10  1  0
  9 11  1  0
 10 12  1  0
 11  5  1  6
 33 34  1  0
 33 35  1  0
 34 36  1  0
 35 37  1  0
 37 43  1  1
 20 21  2  0
 21 22  1  0
M  CHG  3   2  -1  26  -1  41  -1
M  END
>  <COMPND>  (171) 
    udp_gluA.pdb 

>  <AUTHOR>  (171) 
    GENERATED BY OPEN BABEL 3.1.1

>  <MASTER>  (171) 
        0    0    0    0    0    0    0    0   56    0   56    0

>  <minimizedAffinity>  (171) 
-6.68703

>  <CNNscore>  (171) 
0.4448844194

>  <CNNaffinity>  (171) 
4.4104995728

>  <CNN_VS>  (171) 
1.9621624947

>  <CNNaffinity_variance>  (171) 
0.2103150636

$$$$
172
     RDKit          3D

 43 45  0  0  0  0  0  0  0  0999 V2000
   19.5788   69.7487   -2.0309 P   0  0  2  0  0  0  0  0  0  0  0  0
   18.7724   71.1510   -2.0745 O   0  0  0  0  0  0  0  0  0  0  0  0
   19.9218   69.2575   -0.6551 O   0  0  0  0  0  0  0  0  0  0  0  0
   20.8335   69.9911   -3.0235 O   0  0  0  0  0  0  0  0  0  0  0  0
   21.2425   71.3212   -3.2838 C   0  0  0  0  0  0  0  0  0  0  0  0
   22.9417   72.5589   -2.1182 O   0  0  0  0  0  0  0  0  0  0  0  0
   24.7210   70.1896   -2.5787 O   0  0  0  0  0  0  0  0  0  0  0  0
   23.9486   69.8594    0.0156 O   0  0  0  0  0  0  0  0  0  0  0  0
   23.3204   70.2280   -2.3043 C   0  0  1  0  0  0  0  0  0  0  0  0
   23.0808   70.5640   -0.8476 C   0  0  2  0  0  0  0  0  0  0  0  0
   22.7363   71.4432   -3.0117 C   0  0  1  0  0  0  0  0  0  0  0  0
   23.3245   72.0633   -0.8255 C   0  0  2  0  0  0  0  0  0  0  0  0
   25.1165   69.4213   -2.1370 H   0  0  0  0  0  0  0  0  0  0  0  0
   23.7536   68.9100   -0.0344 H   0  0  0  0  0  0  0  0  0  0  0  0
   23.6830   74.7575   -0.0576 O   0  0  0  0  0  0  0  0  0  0  0  0
   20.2799   74.5176    3.0417 O   0  0  0  0  0  0  0  0  0  0  0  0
   22.5460   72.7303    0.1795 N   0  0  0  0  0  0  0  0  0  0  0  0
   21.9884   74.6351    1.4860 N   0  0  0  0  0  0  0  0  0  0  0  0
   22.8069   74.0858    0.4904 C   0  0  0  0  0  0  0  0  0  0  0  0
   21.5367   72.0440    0.8438 C   0  0  0  0  0  0  0  0  0  0  0  0
   20.7647   72.5812    1.7905 C   0  0  0  0  0  0  0  0  0  0  0  0
   20.9727   73.9926    2.1752 C   0  0  0  0  0  0  0  0  0  0  0  0
   22.1526   75.5770    1.7211 H   0  0  0  0  0  0  0  0  0  0  0  0
   18.6282   68.7568   -2.8825 O   0  0  0  0  0  0  0  0  0  0  0  0
   17.5337   69.0631   -4.0323 P   0  0  2  0  0  0  0  0  0  0  0  0
   16.5884   70.1878   -3.3528 O   0  0  0  0  0  0  0  0  0  0  0  0
   16.7974   67.8493   -4.5207 O   0  0  0  0  0  0  0  0  0  0  0  0
   18.3516   69.8550   -5.1753 O   0  0  0  0  0  0  0  0  0  0  0  0
   18.9404   72.0893   -5.6951 O   0  0  0  0  0  0  0  0  0  0  0  0
   17.6249   70.6935   -9.3543 O   0  0  0  0  0  0  0  0  0  0  0  0
   16.1805   70.0197   -6.9060 O   0  0  0  0  0  0  0  0  0  0  0  0
   20.4702   71.0153   -8.8524 O   0  0  0  0  0  0  0  0  0  0  0  0
   18.2312   70.6000   -8.0652 C   0  0  2  0  0  0  0  0  0  0  0  0
   17.2154   70.9925   -6.9922 C   0  0  2  0  0  0  0  0  0  0  0  0
   19.4301   71.5507   -8.0364 C   0  0  1  0  0  0  0  0  0  0  0  0
   17.8878   71.1267   -5.6252 C   0  0  1  0  0  0  0  0  0  0  0  0
   19.9654   71.7294   -6.6186 C   0  0  1  0  0  0  0  0  0  0  0  0
   16.8603   70.0978   -9.3962 H   0  0  0  0  0  0  0  0  0  0  0  0
   15.7497   69.9292   -7.7701 H   0  0  0  0  0  0  0  0  0  0  0  0
   20.1424   70.8966   -9.7575 H   0  0  0  0  0  0  0  0  0  0  0  0
   22.1901   72.4721   -6.6382 O   0  0  0  0  0  0  0  0  0  0  0  0
   20.5658   74.0585   -6.4283 O   0  0  0  0  0  0  0  0  0  0  0  0
   20.9033   72.8903   -6.5481 C   0  0  0  0  0  0  0  0  0  0  0  0
  1  4  1  0
  1 24  1  0
  1  2  1  1
  1  3  2  0
 25 28  1  0
 25 24  1  0
 25 26  1  1
 25 27  2  0
  6 11  1  0
  6 12  1  0
 29 36  1  0
 29 37  1  0
  9  7  1  1
  7 13  1  0
 10  8  1  1
  8 14  1  0
  4  5  1  0
 36 28  1  6
 33 30  1  6
 30 38  1  0
 34 31  1  1
 31 39  1  0
 35 32  1  6
 32 40  1  0
 41 43  1  0
 15 19  2  0
 42 43  2  0
 16 22  2  0
 12 17  1  1
 17 19  1  0
 17 20  1  0
 18 19  1  0
 18 22  1  0
 18 23  1  0
  9 10  1  0
  9 11  1  0
 10 12  1  0
 11  5  1  1
 33 34  1  0
 33 35  1  0
 34 36  1  0
 35 37  1  0
 37 43  1  6
 20 21  2  0
 21 22  1  0
M  CHG  3   2  -1  26  -1  41  -1
M  END
>  <COMPND>  (172) 
    udp_gluA.pdb 

>  <AUTHOR>  (172) 
    GENERATED BY OPEN BABEL 3.1.1

>  <MASTER>  (172) 
        0    0    0    0    0    0    0    0   56    0   56    0

>  <minimizedAffinity>  (172) 
-8.91022

>  <CNNscore>  (172) 
0.4264113009

>  <CNNaffinity>  (172) 
4.2685127258

>  <CNN_VS>  (172) 
1.8201420307

>  <CNNaffinity_variance>  (172) 
0.2017398328

$$$$
173
     RDKit          3D

 43 45  0  0  0  0  0  0  0  0999 V2000
   20.8151   73.5923   -3.1533 P   0  0  2  0  0  0  0  0  0  0  0  0
   22.2897   74.2563   -3.0942 O   0  0  0  0  0  0  0  0  0  0  0  0
   19.6779   74.5612   -3.0130 O   0  0  0  0  0  0  0  0  0  0  0  0
   20.8749   72.4140   -2.0460 O   0  0  0  0  0  0  0  0  0  0  0  0
   21.8987   72.4557   -1.0689 C   0  0  0  0  0  0  0  0  0  0  0  0
   22.1928   72.6581    1.3081 O   0  0  0  0  0  0  0  0  0  0  0  0
   19.2510   72.1215    1.5303 O   0  0  0  0  0  0  0  0  0  0  0  0
   19.3874   74.8283    1.8311 O   0  0  0  0  0  0  0  0  0  0  0  0
   19.9631   72.8544    0.5332 C   0  0  1  0  0  0  0  0  0  0  0  0
   20.4036   74.1948    1.0825 C   0  0  2  0  0  0  0  0  0  0  0  0
   21.2941   72.1541    0.2963 C   0  0  1  0  0  0  0  0  0  0  0  0
   21.6019   73.8087    1.9328 C   0  0  2  0  0  0  0  0  0  0  0  0
   18.3968   72.5500    1.6988 H   0  0  0  0  0  0  0  0  0  0  0  0
   18.6474   75.0544    1.2452 H   0  0  0  0  0  0  0  0  0  0  0  0
   22.8438   74.6664    4.3199 O   0  0  0  0  0  0  0  0  0  0  0  0
   25.3475   77.8326    2.0948 O   0  0  0  0  0  0  0  0  0  0  0  0
   22.5819   74.8551    2.0060 N   0  0  0  0  0  0  0  0  0  0  0  0
   24.0889   76.2432    3.2096 N   0  0  0  0  0  0  0  0  0  0  0  0
   23.1442   75.2095    3.2551 C   0  0  0  0  0  0  0  0  0  0  0  0
   22.9776   75.5169    0.8500 C   0  0  0  0  0  0  0  0  0  0  0  0
   23.8792   76.5003    0.8223 C   0  0  0  0  0  0  0  0  0  0  0  0
   24.5141   76.9317    2.0849 C   0  0  0  0  0  0  0  0  0  0  0  0
   24.4928   76.5089    4.0673 H   0  0  0  0  0  0  0  0  0  0  0  0
   20.8388   72.7796   -4.5503 O   0  0  0  0  0  0  0  0  0  0  0  0
   21.0458   73.2883   -6.0709 P   0  0  2  0  0  0  0  0  0  0  0  0
   22.4540   72.6140   -6.4980 O   0  0  0  0  0  0  0  0  0  0  0  0
   21.0002   74.7802   -6.2327 O   0  0  0  0  0  0  0  0  0  0  0  0
   19.9355   72.4881   -6.9249 O   0  0  0  0  0  0  0  0  0  0  0  0
   19.0878   70.4621   -6.0384 O   0  0  0  0  0  0  0  0  0  0  0  0
   17.8471   70.2423   -9.9729 O   0  0  0  0  0  0  0  0  0  0  0  0
   20.5284   71.1986   -9.3169 O   0  0  0  0  0  0  0  0  0  0  0  0
   15.9436   70.9027   -7.8773 O   0  0  0  0  0  0  0  0  0  0  0  0
   18.1897   70.8922   -8.7489 C   0  0  2  0  0  0  0  0  0  0  0  0
   19.6428   70.5781   -8.3920 C   0  0  2  0  0  0  0  0  0  0  0  0
   17.2497   70.3731   -7.6585 C   0  0  1  0  0  0  0  0  0  0  0  0
   19.9767   71.0633   -6.9807 C   0  0  1  0  0  0  0  0  0  0  0  0
   17.7208   70.7949   -6.2697 C   0  0  1  0  0  0  0  0  0  0  0  0
   18.4315   70.5566  -10.6807 H   0  0  0  0  0  0  0  0  0  0  0  0
   20.3221   70.8955  -10.2147 H   0  0  0  0  0  0  0  0  0  0  0  0
   15.6321   70.6416   -8.7580 H   0  0  0  0  0  0  0  0  0  0  0  0
   17.5855   70.2185   -4.0002 O   0  0  0  0  0  0  0  0  0  0  0  0
   16.0260   69.3157   -5.3973 O   0  0  0  0  0  0  0  0  0  0  0  0
   17.0038   70.0240   -5.2096 C   0  0  0  0  0  0  0  0  0  0  0  0
  1  4  1  0
  1 24  1  0
  1  2  1  6
  1  3  2  0
 25 28  1  0
 25 24  1  0
 25 26  1  6
 25 27  2  0
  6 11  1  0
  6 12  1  0
 29 36  1  0
 29 37  1  0
  9  7  1  1
  7 13  1  0
 10  8  1  1
  8 14  1  0
  4  5  1  0
 36 28  1  6
 33 30  1  6
 30 38  1  0
 34 31  1  6
 31 39  1  0
 35 32  1  6
 32 40  1  0
 41 43  1  0
 15 19  2  0
 42 43  2  0
 16 22  2  0
 12 17  1  6
 17 19  1  0
 17 20  1  0
 18 19  1  0
 18 22  1  0
 18 23  1  0
  9 10  1  0
  9 11  1  0
 10 12  1  0
 11  5  1  6
 33 34  1  0
 33 35  1  0
 34 36  1  0
 35 37  1  0
 37 43  1  1
 20 21  2  0
 21 22  1  0
M  CHG  3   2  -1  26  -1  41  -1
M  END
>  <COMPND>  (173) 
    udp_gluA.pdb 

>  <AUTHOR>  (173) 
    GENERATED BY OPEN BABEL 3.1.1

>  <MASTER>  (173) 
        0    0    0    0    0    0    0    0   56    0   56    0

>  <minimizedAffinity>  (173) 
-7.63285

>  <CNNscore>  (173) 
0.4100033641

>  <CNNaffinity>  (173) 
4.0738883018

>  <CNN_VS>  (173) 
1.6703078747

>  <CNNaffinity_variance>  (173) 
0.0749457255

$$$$
174
     RDKit          3D

 43 45  0  0  0  0  0  0  0  0999 V2000
   19.4182   74.8146   -3.7187 P   0  0  2  0  0  0  0  0  0  0  0  0
   20.8605   75.1331   -3.0576 O   0  0  0  0  0  0  0  0  0  0  0  0
   18.7888   75.9638   -4.4502 O   0  0  0  0  0  0  0  0  0  0  0  0
   18.5553   74.2044   -2.4935 O   0  0  0  0  0  0  0  0  0  0  0  0
   18.6924   74.7907   -1.2121 C   0  0  0  0  0  0  0  0  0  0  0  0
   18.7047   72.4735   -0.5735 O   0  0  0  0  0  0  0  0  0  0  0  0
   18.0594   73.4255    2.1957 O   0  0  0  0  0  0  0  0  0  0  0  0
   20.7346   72.9194    2.3479 O   0  0  0  0  0  0  0  0  0  0  0  0
   18.8950   74.0255    1.2057 C   0  0  1  0  0  0  0  0  0  0  0  0
   20.1980   73.2635    1.0877 C   0  0  2  0  0  0  0  0  0  0  0  0
   18.2591   73.7821   -0.1561 C   0  0  1  0  0  0  0  0  0  0  0  0
   19.7800   72.0477    0.2783 C   0  0  2  0  0  0  0  0  0  0  0  0
   18.4454   73.5679    3.0746 H   0  0  0  0  0  0  0  0  0  0  0  0
   20.9855   73.7272    2.8239 H   0  0  0  0  0  0  0  0  0  0  0  0
   19.9153   69.4019   -0.7006 O   0  0  0  0  0  0  0  0  0  0  0  0
   23.9206   70.2028   -2.8361 O   0  0  0  0  0  0  0  0  0  0  0  0
   20.8470   71.5381   -0.5358 N   0  0  0  0  0  0  0  0  0  0  0  0
   21.9105   69.8031   -1.7624 N   0  0  0  0  0  0  0  0  0  0  0  0
   20.8192   70.1934   -0.9752 C   0  0  0  0  0  0  0  0  0  0  0  0
   21.9040   72.3668   -0.8922 C   0  0  0  0  0  0  0  0  0  0  0  0
   22.9371   71.9805   -1.6433 C   0  0  0  0  0  0  0  0  0  0  0  0
   22.9852   70.5906   -2.1426 C   0  0  0  0  0  0  0  0  0  0  0  0
   21.9144   68.8706   -2.0785 H   0  0  0  0  0  0  0  0  0  0  0  0
   19.7174   73.5165   -4.6343 O   0  0  0  0  0  0  0  0  0  0  0  0
   20.7779   73.2841   -5.8322 P   0  0  2  0  0  0  0  0  0  0  0  0
   21.7817   72.1681   -5.2262 O   0  0  0  0  0  0  0  0  0  0  0  0
   21.4581   74.5366   -6.3040 O   0  0  0  0  0  0  0  0  0  0  0  0
   19.9436   72.5052   -6.9722 O   0  0  0  0  0  0  0  0  0  0  0  0
   19.0255   70.5103   -6.0854 O   0  0  0  0  0  0  0  0  0  0  0  0
   17.8982   70.2637  -10.0523 O   0  0  0  0  0  0  0  0  0  0  0  0
   20.5791   71.1708   -9.3283 O   0  0  0  0  0  0  0  0  0  0  0  0
   15.9480   70.9936   -8.0238 O   0  0  0  0  0  0  0  0  0  0  0  0
   18.2183   70.9227   -8.8271 C   0  0  2  0  0  0  0  0  0  0  0  0
   19.6529   70.5823   -8.4226 C   0  0  2  0  0  0  0  0  0  0  0  0
   17.2351   70.4389   -7.7589 C   0  0  1  0  0  0  0  0  0  0  0  0
   19.9551   71.0793   -7.0082 C   0  0  1  0  0  0  0  0  0  0  0  0
   17.6736   70.8693   -6.3621 C   0  0  1  0  0  0  0  0  0  0  0  0
   18.5102   70.5556  -10.7462 H   0  0  0  0  0  0  0  0  0  0  0  0
   20.3930   70.8600  -10.2279 H   0  0  0  0  0  0  0  0  0  0  0  0
   15.6572   70.7272   -8.9100 H   0  0  0  0  0  0  0  0  0  0  0  0
   17.3775   70.4284   -4.0775 O   0  0  0  0  0  0  0  0  0  0  0  0
   15.9849   69.3590   -5.5323 O   0  0  0  0  0  0  0  0  0  0  0  0
   16.9086   70.1286   -5.3141 C   0  0  0  0  0  0  0  0  0  0  0  0
  1  4  1  0
  1 24  1  0
  1  2  1  1
  1  3  2  0
 25 28  1  0
 25 24  1  0
 25 26  1  1
 25 27  2  0
  6 11  1  0
  6 12  1  0
 29 36  1  0
 29 37  1  0
  9  7  1  1
  7 13  1  0
 10  8  1  1
  8 14  1  0
  4  5  1  0
 36 28  1  6
 33 30  1  6
 30 38  1  0
 34 31  1  6
 31 39  1  0
 35 32  1  6
 32 40  1  0
 41 43  1  0
 15 19  2  0
 42 43  2  0
 16 22  2  0
 12 17  1  6
 17 19  1  0
 17 20  1  0
 18 19  1  0
 18 22  1  0
 18 23  1  0
  9 10  1  0
  9 11  1  0
 10 12  1  0
 11  5  1  6
 33 34  1  0
 33 35  1  0
 34 36  1  0
 35 37  1  0
 37 43  1  1
 20 21  2  0
 21 22  1  0
M  CHG  3   2  -1  26  -1  41  -1
M  END
>  <COMPND>  (174) 
    udp_gluA.pdb 

>  <AUTHOR>  (174) 
    GENERATED BY OPEN BABEL 3.1.1

>  <MASTER>  (174) 
        0    0    0    0    0    0    0    0   56    0   56    0

>  <minimizedAffinity>  (174) 
-7.88576

>  <CNNscore>  (174) 
0.3387918472

>  <CNNaffinity>  (174) 
3.9793524742

>  <CNN_VS>  (174) 
1.3481721878

>  <CNNaffinity_variance>  (174) 
0.7037249804

$$$$
175
     RDKit          3D

 43 45  0  0  0  0  0  0  0  0999 V2000
   19.8045   75.4811   -2.5465 P   0  0  2  0  0  0  0  0  0  0  0  0
   20.6232   76.8115   -2.9693 O   0  0  0  0  0  0  0  0  0  0  0  0
   18.3372   75.6885   -2.3102 O   0  0  0  0  0  0  0  0  0  0  0  0
   20.6415   74.8916   -1.2936 O   0  0  0  0  0  0  0  0  0  0  0  0
   20.4904   75.5095   -0.0288 C   0  0  0  0  0  0  0  0  0  0  0  0
   19.8217   73.2252    0.3067 O   0  0  0  0  0  0  0  0  0  0  0  0
   19.6233   73.9063    3.2202 O   0  0  0  0  0  0  0  0  0  0  0  0
   22.0194   72.6129    3.0725 O   0  0  0  0  0  0  0  0  0  0  0  0
   20.5572   74.3707    2.2452 C   0  0  1  0  0  0  0  0  0  0  0  0
   21.5579   73.2827    1.9180 C   0  0  2  0  0  0  0  0  0  0  0  0
   19.8169   74.5305    0.9243 C   0  0  1  0  0  0  0  0  0  0  0  0
   20.7522   72.3788    1.0004 C   0  0  2  0  0  0  0  0  0  0  0  0
   20.0732   73.7965    4.0729 H   0  0  0  0  0  0  0  0  0  0  0  0
   22.5264   73.2305    3.6236 H   0  0  0  0  0  0  0  0  0  0  0  0
   19.9539   70.0917   -0.4516 O   0  0  0  0  0  0  0  0  0  0  0  0
   23.9899   69.8642   -2.6659 O   0  0  0  0  0  0  0  0  0  0  0  0
   21.5746   71.7018    0.0380 N   0  0  0  0  0  0  0  0  0  0  0  0
   21.9652   69.9800   -1.5523 N   0  0  0  0  0  0  0  0  0  0  0  0
   21.0783   70.5612   -0.6364 C   0  0  0  0  0  0  0  0  0  0  0  0
   22.8555   72.1687   -0.2305 C   0  0  0  0  0  0  0  0  0  0  0  0
   23.6892   71.6041   -1.1063 C   0  0  0  0  0  0  0  0  0  0  0  0
   23.2483   70.4076   -1.8528 C   0  0  0  0  0  0  0  0  0  0  0  0
   21.6428   69.1834   -2.0327 H   0  0  0  0  0  0  0  0  0  0  0  0
   20.1550   74.4456   -3.7372 O   0  0  0  0  0  0  0  0  0  0  0  0
   19.9258   72.8498   -3.8578 P   0  0  2  0  0  0  0  0  0  0  0  0
   18.9684   72.5172   -2.5956 O   0  0  0  0  0  0  0  0  0  0  0  0
   21.1939   72.0471   -3.9005 O   0  0  0  0  0  0  0  0  0  0  0  0
   18.9753   72.6692   -5.1486 O   0  0  0  0  0  0  0  0  0  0  0  0
   19.5438   72.0558   -7.3644 O   0  0  0  0  0  0  0  0  0  0  0  0
   16.3033   74.5420   -7.9855 O   0  0  0  0  0  0  0  0  0  0  0  0
   18.3460   75.2359   -6.0157 O   0  0  0  0  0  0  0  0  0  0  0  0
   15.9999   71.6611   -8.2287 O   0  0  0  0  0  0  0  0  0  0  0  0
   17.0964   73.5862   -7.2818 C   0  0  2  0  0  0  0  0  0  0  0  0
   18.4670   74.1881   -6.9708 C   0  0  2  0  0  0  0  0  0  0  0  0
   17.2474   72.3502   -8.1714 C   0  0  1  0  0  0  0  0  0  0  0  0
   19.4206   73.1244   -6.4250 C   0  0  1  0  0  0  0  0  0  0  0  0
   18.3066   71.3969   -7.6256 C   0  0  1  0  0  0  0  0  0  0  0  0
   16.1938   75.3364   -7.4394 H   0  0  0  0  0  0  0  0  0  0  0  0
   17.7421   75.9143   -6.3554 H   0  0  0  0  0  0  0  0  0  0  0  0
   15.3170   72.2569   -8.5744 H   0  0  0  0  0  0  0  0  0  0  0  0
   20.0232   70.3529   -8.8359 O   0  0  0  0  0  0  0  0  0  0  0  0
   17.8909   69.6552   -9.2427 O   0  0  0  0  0  0  0  0  0  0  0  0
   18.6801   70.3759   -8.6504 C   0  0  0  0  0  0  0  0  0  0  0  0
  1  4  1  0
  1 24  1  0
  1  2  1  6
  1  3  2  0
 25 28  1  0
 25 24  1  0
 25 26  1  1
 25 27  2  0
  6 11  1  0
  6 12  1  0
 29 36  1  0
 29 37  1  0
  9  7  1  1
  7 13  1  0
 10  8  1  1
  8 14  1  0
  4  5  1  0
 36 28  1  1
 33 30  1  6
 30 38  1  0
 34 31  1  1
 31 39  1  0
 35 32  1  1
 32 40  1  0
 41 43  1  0
 15 19  2  0
 42 43  2  0
 16 22  2  0
 12 17  1  6
 17 19  1  0
 17 20  1  0
 18 19  1  0
 18 22  1  0
 18 23  1  0
  9 10  1  0
  9 11  1  0
 10 12  1  0
 11  5  1  6
 33 34  1  0
 33 35  1  0
 34 36  1  0
 35 37  1  0
 37 43  1  6
 20 21  2  0
 21 22  1  0
M  CHG  3   2  -1  26  -1  41  -1
M  END
>  <COMPND>  (175) 
    udp_gluA.pdb 

>  <AUTHOR>  (175) 
    GENERATED BY OPEN BABEL 3.1.1

>  <MASTER>  (175) 
        0    0    0    0    0    0    0    0   56    0   56    0

>  <minimizedAffinity>  (175) 
-7.24663

>  <CNNscore>  (175) 
0.3354277015

>  <CNNaffinity>  (175) 
3.8965466022

>  <CNN_VS>  (175) 
1.3070096970

>  <CNNaffinity_variance>  (175) 
0.4107023180

$$$$
176
     RDKit          3D

 43 45  0  0  0  0  0  0  0  0999 V2000
   20.5877   76.9697   -1.9823 P   0  0  2  0  0  0  0  0  0  0  0  0
   21.9907   76.7537   -2.7595 O   0  0  0  0  0  0  0  0  0  0  0  0
   20.4710   78.2649   -1.2336 O   0  0  0  0  0  0  0  0  0  0  0  0
   20.4252   75.6273   -1.0937 O   0  0  0  0  0  0  0  0  0  0  0  0
   20.8876   75.6422    0.2444 C   0  0  0  0  0  0  0  0  0  0  0  0
   19.9833   73.4190    0.3761 O   0  0  0  0  0  0  0  0  0  0  0  0
   19.5817   73.9559    3.2988 O   0  0  0  0  0  0  0  0  0  0  0  0
   21.8519   72.4453    3.2769 O   0  0  0  0  0  0  0  0  0  0  0  0
   20.6401   74.3797    2.4392 C   0  0  1  0  0  0  0  0  0  0  0  0
   21.5620   73.2189    2.1314 C   0  0  2  0  0  0  0  0  0  0  0  0
   20.0422   74.6829    1.0722 C   0  0  1  0  0  0  0  0  0  0  0  0
   20.7642   72.4494    1.0926 C   0  0  2  0  0  0  0  0  0  0  0  0
   19.9395   73.7564    4.1785 H   0  0  0  0  0  0  0  0  0  0  0  0
   22.3608   72.9794    3.9075 H   0  0  0  0  0  0  0  0  0  0  0  0
   19.9350   70.2380   -0.4561 O   0  0  0  0  0  0  0  0  0  0  0  0
   24.0772   69.8403   -2.4379 O   0  0  0  0  0  0  0  0  0  0  0  0
   21.6055   71.7490    0.1639 N   0  0  0  0  0  0  0  0  0  0  0  0
   21.9991   70.0414   -1.4409 N   0  0  0  0  0  0  0  0  0  0  0  0
   21.0913   70.6504   -0.5646 C   0  0  0  0  0  0  0  0  0  0  0  0
   22.9227   72.1523   -0.0191 C   0  0  0  0  0  0  0  0  0  0  0  0
   23.7761   71.5619   -0.8581 C   0  0  0  0  0  0  0  0  0  0  0  0
   23.3183   70.4059   -1.6566 C   0  0  0  0  0  0  0  0  0  0  0  0
   21.6646   69.2730   -1.9576 H   0  0  0  0  0  0  0  0  0  0  0  0
   19.4902   76.7665   -3.1515 O   0  0  0  0  0  0  0  0  0  0  0  0
   18.8095   75.4265   -3.7471 P   0  0  2  0  0  0  0  0  0  0  0  0
   17.9412   75.9771   -4.9974 O   0  0  0  0  0  0  0  0  0  0  0  0
   18.0178   74.6395   -2.7433 O   0  0  0  0  0  0  0  0  0  0  0  0
   20.0281   74.6145   -4.4239 O   0  0  0  0  0  0  0  0  0  0  0  0
   19.9008   72.3458   -5.0915 O   0  0  0  0  0  0  0  0  0  0  0  0
   23.9697   72.8440   -4.5785 O   0  0  0  0  0  0  0  0  0  0  0  0
   22.0847   73.9849   -2.6604 O   0  0  0  0  0  0  0  0  0  0  0  0
   22.8365   72.7546   -7.2541 O   0  0  0  0  0  0  0  0  0  0  0  0
   22.6385   73.2444   -4.9034 C   0  0  2  0  0  0  0  0  0  0  0  0
   21.7362   73.0590   -3.6831 C   0  0  2  0  0  0  0  0  0  0  0  0
   22.1519   72.3720   -6.0627 C   0  0  1  0  0  0  0  0  0  0  0  0
   20.2660   73.2574   -4.0547 C   0  0  1  0  0  0  0  0  0  0  0  0
   20.6514   72.5329   -6.2892 C   0  0  1  0  0  0  0  0  0  0  0  0
   24.3001   73.3848   -3.8439 H   0  0  0  0  0  0  0  0  0  0  0  0
   23.0164   73.8648   -2.4199 H   0  0  0  0  0  0  0  0  0  0  0  0
   23.7926   72.6570   -7.1231 H   0  0  0  0  0  0  0  0  0  0  0  0
   19.5937   70.4458   -6.4534 O   0  0  0  0  0  0  0  0  0  0  0  0
   20.1777   71.4722   -8.4039 O   0  0  0  0  0  0  0  0  0  0  0  0
   20.1313   71.4546   -7.1831 C   0  0  0  0  0  0  0  0  0  0  0  0
  1  4  1  0
  1 24  1  0
  1  2  1  6
  1  3  2  0
 25 28  1  0
 25 24  1  0
 25 26  1  6
 25 27  2  0
  6 11  1  0
  6 12  1  0
 29 36  1  0
 29 37  1  0
  9  7  1  1
  7 13  1  0
 10  8  1  1
  8 14  1  0
  4  5  1  0
 36 28  1  6
 33 30  1  1
 30 38  1  0
 34 31  1  1
 31 39  1  0
 35 32  1  6
 32 40  1  0
 41 43  1  0
 15 19  2  0
 42 43  2  0
 16 22  2  0
 12 17  1  6
 17 19  1  0
 17 20  1  0
 18 19  1  0
 18 22  1  0
 18 23  1  0
  9 10  1  0
  9 11  1  0
 10 12  1  0
 11  5  1  6
 33 34  1  0
 33 35  1  0
 34 36  1  0
 35 37  1  0
 37 43  1  6
 20 21  2  0
 21 22  1  0
M  CHG  3   2  -1  26  -1  41  -1
M  END
>  <COMPND>  (176) 
    udp_gluA.pdb 

>  <AUTHOR>  (176) 
    GENERATED BY OPEN BABEL 3.1.1

>  <MASTER>  (176) 
        0    0    0    0    0    0    0    0   56    0   56    0

>  <minimizedAffinity>  (176) 
-6.74928

>  <CNNscore>  (176) 
0.3295333087

>  <CNNaffinity>  (176) 
3.7495415211

>  <CNN_VS>  (176) 
1.2355988026

>  <CNNaffinity_variance>  (176) 
0.9512073398

$$$$
177
     RDKit          3D

 43 45  0  0  0  0  0  0  0  0999 V2000
   21.0573   70.2748   -1.6001 P   0  0  2  0  0  0  0  0  0  0  0  0
   19.9836   69.3049   -0.8752 O   0  0  0  0  0  0  0  0  0  0  0  0
   21.8901   69.6172   -2.6610 O   0  0  0  0  0  0  0  0  0  0  0  0
   21.8775   70.9337   -0.3709 O   0  0  0  0  0  0  0  0  0  0  0  0
   21.5874   72.2699   -0.0035 C   0  0  0  0  0  0  0  0  0  0  0  0
   21.2840   72.9698    2.2759 O   0  0  0  0  0  0  0  0  0  0  0  0
   18.3571   72.4861    1.8395 O   0  0  0  0  0  0  0  0  0  0  0  0
   18.5546   75.1957    1.6053 O   0  0  0  0  0  0  0  0  0  0  0  0
   19.3344   72.9937    0.9308 C   0  0  1  0  0  0  0  0  0  0  0  0
   19.6920   74.4206    1.2889 C   0  0  2  0  0  0  0  0  0  0  0  0
   20.6438   72.2619    1.1923 C   0  0  1  0  0  0  0  0  0  0  0  0
   20.6159   74.2251    2.4789 C   0  0  2  0  0  0  0  0  0  0  0  0
   17.5116   72.9388    1.6915 H   0  0  0  0  0  0  0  0  0  0  0  0
   17.9988   75.2915    0.8155 H   0  0  0  0  0  0  0  0  0  0  0  0
   20.1737   76.7139    3.7387 O   0  0  0  0  0  0  0  0  0  0  0  0
   24.4610   78.1416    2.8304 O   0  0  0  0  0  0  0  0  0  0  0  0
   21.5992   75.2655    2.5860 N   0  0  0  0  0  0  0  0  0  0  0  0
   22.3091   77.4230    3.2842 N   0  0  0  0  0  0  0  0  0  0  0  0
   21.2753   76.4784    3.2387 C   0  0  0  0  0  0  0  0  0  0  0  0
   22.8676   75.0788    2.0500 C   0  0  0  0  0  0  0  0  0  0  0  0
   23.8427   75.9884    2.1014 C   0  0  0  0  0  0  0  0  0  0  0  0
   23.5861   77.2833    2.7652 C   0  0  0  0  0  0  0  0  0  0  0  0
   22.1067   78.2762    3.7318 H   0  0  0  0  0  0  0  0  0  0  0  0
   20.1429   71.5001   -2.1250 O   0  0  0  0  0  0  0  0  0  0  0  0
   20.2501   72.4096   -3.4573 P   0  0  2  0  0  0  0  0  0  0  0  0
   21.7220   72.0547   -4.0299 O   0  0  0  0  0  0  0  0  0  0  0  0
   20.0137   73.8737   -3.2240 O   0  0  0  0  0  0  0  0  0  0  0  0
   19.2303   71.7251   -4.5032 O   0  0  0  0  0  0  0  0  0  0  0  0
   18.5998   69.4506   -4.6985 O   0  0  0  0  0  0  0  0  0  0  0  0
   18.3024   70.7443   -8.6108 O   0  0  0  0  0  0  0  0  0  0  0  0
   20.5545   71.5723   -6.9444 O   0  0  0  0  0  0  0  0  0  0  0  0
   15.9021   70.3355   -7.0227 O   0  0  0  0  0  0  0  0  0  0  0  0
   18.2460   70.8675   -7.1897 C   0  0  2  0  0  0  0  0  0  0  0  0
   19.6198   70.5582   -6.5943 C   0  0  2  0  0  0  0  0  0  0  0  0
   17.2047   69.8738   -6.6699 C   0  0  1  0  0  0  0  0  0  0  0  0
   19.5449   70.4546   -5.0703 C   0  0  1  0  0  0  0  0  0  0  0  0
   17.2778   69.7332   -5.1522 C   0  0  1  0  0  0  0  0  0  0  0  0
   18.9579   71.3665   -8.9637 H   0  0  0  0  0  0  0  0  0  0  0  0
   20.6069   71.6437   -7.9101 H   0  0  0  0  0  0  0  0  0  0  0  0
   15.8423   70.4294   -7.9863 H   0  0  0  0  0  0  0  0  0  0  0  0
   17.3380   67.5759   -4.2335 O   0  0  0  0  0  0  0  0  0  0  0  0
   15.2857   68.4428   -4.7190 O   0  0  0  0  0  0  0  0  0  0  0  0
   16.5033   68.5413   -4.6919 C   0  0  0  0  0  0  0  0  0  0  0  0
  1  4  1  0
  1 24  1  0
  1  2  1  1
  1  3  2  0
 25 28  1  0
 25 24  1  0
 25 26  1  6
 25 27  2  0
  6 11  1  0
  6 12  1  0
 29 36  1  0
 29 37  1  0
  9  7  1  1
  7 13  1  0
 10  8  1  1
  8 14  1  0
  4  5  1  0
 36 28  1  1
 33 30  1  6
 30 38  1  0
 34 31  1  1
 31 39  1  0
 35 32  1  1
 32 40  1  0
 41 43  1  0
 15 19  2  0
 42 43  2  0
 16 22  2  0
 12 17  1  6
 17 19  1  0
 17 20  1  0
 18 19  1  0
 18 22  1  0
 18 23  1  0
  9 10  1  0
  9 11  1  0
 10 12  1  0
 11  5  1  6
 33 34  1  0
 33 35  1  0
 34 36  1  0
 35 37  1  0
 37 43  1  6
 20 21  2  0
 21 22  1  0
M  CHG  3   2  -1  26  -1  41  -1
M  END
>  <COMPND>  (177) 
    udp_gluA.pdb 

>  <AUTHOR>  (177) 
    GENERATED BY OPEN BABEL 3.1.1

>  <MASTER>  (177) 
        0    0    0    0    0    0    0    0   56    0   56    0

>  <minimizedAffinity>  (177) 
-7.61518

>  <CNNscore>  (177) 
0.2972598672

>  <CNNaffinity>  (177) 
4.0877895355

>  <CNN_VS>  (177) 
1.2151358128

>  <CNNaffinity_variance>  (177) 
0.0315913260

$$$$
178
     RDKit          3D

 43 45  0  0  0  0  0  0  0  0999 V2000
   20.2774   71.0906   -1.9883 P   0  0  2  0  0  0  0  0  0  0  0  0
   19.0253   72.1101   -1.8808 O   0  0  0  0  0  0  0  0  0  0  0  0
   19.9059   69.6464   -2.1563 O   0  0  0  0  0  0  0  0  0  0  0  0
   21.1746   71.4386   -0.6876 O   0  0  0  0  0  0  0  0  0  0  0  0
   21.6788   72.7540   -0.5463 C   0  0  0  0  0  0  0  0  0  0  0  0
   22.6628   74.2938    1.0152 O   0  0  0  0  0  0  0  0  0  0  0  0
   21.9045   72.3267    3.1476 O   0  0  0  0  0  0  0  0  0  0  0  0
   19.9469   74.2139    3.3544 O   0  0  0  0  0  0  0  0  0  0  0  0
   21.2066   72.6777    1.9524 C   0  0  1  0  0  0  0  0  0  0  0  0
   20.5707   74.0439    2.0988 C   0  0  2  0  0  0  0  0  0  0  0  0
   22.2389   72.9221    0.8603 C   0  0  1  0  0  0  0  0  0  0  0  0
   21.7612   74.9680    1.9073 C   0  0  2  0  0  0  0  0  0  0  0  0
   21.2656   72.1657    3.8600 H   0  0  0  0  0  0  0  0  0  0  0  0
   19.1956   73.6038    3.4274 H   0  0  0  0  0  0  0  0  0  0  0  0
   20.9552   77.2280    3.3971 O   0  0  0  0  0  0  0  0  0  0  0  0
   20.3556   79.7525   -0.4124 O   0  0  0  0  0  0  0  0  0  0  0  0
   21.3890   76.2287    1.3302 N   0  0  0  0  0  0  0  0  0  0  0  0
   20.6564   78.4829    1.4983 N   0  0  0  0  0  0  0  0  0  0  0  0
   20.9993   77.3007    2.1675 C   0  0  0  0  0  0  0  0  0  0  0  0
   21.4137   76.3943   -0.0492 C   0  0  0  0  0  0  0  0  0  0  0  0
   21.0842   77.5273   -0.6726 C   0  0  0  0  0  0  0  0  0  0  0  0
   20.6648   78.6954    0.1292 C   0  0  0  0  0  0  0  0  0  0  0  0
   20.3798   79.2426    2.0601 H   0  0  0  0  0  0  0  0  0  0  0  0
   21.1451   71.7085   -3.2042 O   0  0  0  0  0  0  0  0  0  0  0  0
   20.7490   72.7672   -4.3600 P   0  0  2  0  0  0  0  0  0  0  0  0
   22.0421   72.7530   -5.3335 O   0  0  0  0  0  0  0  0  0  0  0  0
   20.3760   74.1280   -3.8470 O   0  0  0  0  0  0  0  0  0  0  0  0
   19.5916   72.0317   -5.2096 O   0  0  0  0  0  0  0  0  0  0  0  0
   18.8095   69.7962   -5.1996 O   0  0  0  0  0  0  0  0  0  0  0  0
   18.4211   70.8049   -9.1871 O   0  0  0  0  0  0  0  0  0  0  0  0
   20.7933   71.6049   -7.6814 O   0  0  0  0  0  0  0  0  0  0  0  0
   16.0727   70.6798   -7.4782 O   0  0  0  0  0  0  0  0  0  0  0  0
   18.4360   71.0395   -7.7790 C   0  0  2  0  0  0  0  0  0  0  0  0
   19.8125   70.6853   -7.2157 C   0  0  2  0  0  0  0  0  0  0  0  0
   17.3578   70.1603   -7.1416 C   0  0  1  0  0  0  0  0  0  0  0  0
   19.7991   70.7034   -5.6865 C   0  0  1  0  0  0  0  0  0  0  0  0
   17.4893   70.1312   -5.6216 C   0  0  1  0  0  0  0  0  0  0  0  0
   19.0985   71.3531   -9.6136 H   0  0  0  0  0  0  0  0  0  0  0  0
   20.8071   71.5988   -8.6510 H   0  0  0  0  0  0  0  0  0  0  0  0
   15.9762   70.7038   -8.4430 H   0  0  0  0  0  0  0  0  0  0  0  0
   17.4509   68.0977   -4.4532 O   0  0  0  0  0  0  0  0  0  0  0  0
   15.4417   68.9770   -5.0769 O   0  0  0  0  0  0  0  0  0  0  0  0
   16.6617   69.0324   -5.0385 C   0  0  0  0  0  0  0  0  0  0  0  0
  1  4  1  0
  1 24  1  0
  1  2  1  1
  1  3  2  0
 25 28  1  0
 25 24  1  0
 25 26  1  6
 25 27  2  0
  6 11  1  0
  6 12  1  0
 29 36  1  0
 29 37  1  0
  9  7  1  1
  7 13  1  0
 10  8  1  1
  8 14  1  0
  4  5  1  0
 36 28  1  6
 33 30  1  6
 30 38  1  0
 34 31  1  6
 31 39  1  0
 35 32  1  1
 32 40  1  0
 41 43  1  0
 15 19  2  0
 42 43  2  0
 16 22  2  0
 12 17  1  6
 17 19  1  0
 17 20  1  0
 18 19  1  0
 18 22  1  0
 18 23  1  0
  9 10  1  0
  9 11  1  0
 10 12  1  0
 11  5  1  6
 33 34  1  0
 33 35  1  0
 34 36  1  0
 35 37  1  0
 37 43  1  1
 20 21  2  0
 21 22  1  0
M  CHG  3   2  -1  26  -1  41  -1
M  END
>  <COMPND>  (178) 
    udp_gluA.pdb 

>  <AUTHOR>  (178) 
    GENERATED BY OPEN BABEL 3.1.1

>  <MASTER>  (178) 
        0    0    0    0    0    0    0    0   56    0   56    0

>  <minimizedAffinity>  (178) 
-6.88615

>  <CNNscore>  (178) 
0.2822870016

>  <CNNaffinity>  (178) 
4.1976189613

>  <CNN_VS>  (178) 
1.1849333048

>  <CNNaffinity_variance>  (178) 
0.0223908462

$$$$
179
     RDKit          3D

 43 45  0  0  0  0  0  0  0  0999 V2000
   21.0917   70.4604   -1.6762 P   0  0  2  0  0  0  0  0  0  0  0  0
   20.1741   69.5218   -0.7298 O   0  0  0  0  0  0  0  0  0  0  0  0
   22.4567   69.9147   -1.9774 O   0  0  0  0  0  0  0  0  0  0  0  0
   21.0576   71.9025   -0.9433 O   0  0  0  0  0  0  0  0  0  0  0  0
   21.7305   72.0483    0.2938 C   0  0  0  0  0  0  0  0  0  0  0  0
   21.2745   72.9849    2.4600 O   0  0  0  0  0  0  0  0  0  0  0  0
   18.3770   72.5155    1.8473 O   0  0  0  0  0  0  0  0  0  0  0  0
   18.6654   75.1823    1.3563 O   0  0  0  0  0  0  0  0  0  0  0  0
   19.4338   72.9079    0.9711 C   0  0  1  0  0  0  0  0  0  0  0  0
   19.8020   74.3569    1.2099 C   0  0  2  0  0  0  0  0  0  0  0  0
   20.6992   72.1817    1.4068 C   0  0  1  0  0  0  0  0  0  0  0  0
   20.6273   74.2671    2.4821 C   0  0  2  0  0  0  0  0  0  0  0  0
   17.5578   72.9668    1.5886 H   0  0  0  0  0  0  0  0  0  0  0  0
   18.1738   75.2070    0.5199 H   0  0  0  0  0  0  0  0  0  0  0  0
   20.1899   76.8417    3.5575 O   0  0  0  0  0  0  0  0  0  0  0  0
   24.5384   78.1259    2.7292 O   0  0  0  0  0  0  0  0  0  0  0  0
   21.6277   75.2938    2.5599 N   0  0  0  0  0  0  0  0  0  0  0  0
   22.3558   77.4792    3.1430 N   0  0  0  0  0  0  0  0  0  0  0  0
   21.3047   76.5532    3.1183 C   0  0  0  0  0  0  0  0  0  0  0  0
   22.9116   75.0484    2.0883 C   0  0  0  0  0  0  0  0  0  0  0  0
   23.9030   75.9410    2.1187 C   0  0  0  0  0  0  0  0  0  0  0  0
   23.6486   77.2817    2.6855 C   0  0  0  0  0  0  0  0  0  0  0  0
   22.1545   78.3639    3.5253 H   0  0  0  0  0  0  0  0  0  0  0  0
   20.1569   70.6906   -2.9747 O   0  0  0  0  0  0  0  0  0  0  0  0
   19.0909   69.7163   -3.7013 P   0  0  2  0  0  0  0  0  0  0  0  0
   17.8364   69.7123   -2.6783 O   0  0  0  0  0  0  0  0  0  0  0  0
   19.6264   68.3524   -4.0284 O   0  0  0  0  0  0  0  0  0  0  0  0
   18.5727   70.5559   -4.9776 O   0  0  0  0  0  0  0  0  0  0  0  0
   19.3604   70.6205   -7.2102 O   0  0  0  0  0  0  0  0  0  0  0  0
   18.0610   74.5040   -6.6645 O   0  0  0  0  0  0  0  0  0  0  0  0
   19.5430   73.1282   -4.5561 O   0  0  0  0  0  0  0  0  0  0  0  0
   16.4741   72.6413   -8.2339 O   0  0  0  0  0  0  0  0  0  0  0  0
   18.0566   73.0893   -6.4732 C   0  0  2  0  0  0  0  0  0  0  0  0
   19.3981   72.6479   -5.8876 C   0  0  2  0  0  0  0  0  0  0  0  0
   17.8268   72.4287   -7.8343 C   0  0  1  0  0  0  0  0  0  0  0  0
   19.5179   71.1232   -5.8829 C   0  0  1  0  0  0  0  0  0  0  0  0
   18.0877   70.9264   -7.7756 C   0  0  1  0  0  0  0  0  0  0  0  0
   18.2056   74.9452   -5.8127 H   0  0  0  0  0  0  0  0  0  0  0  0
   19.4678   74.0950   -4.5516 H   0  0  0  0  0  0  0  0  0  0  0  0
   16.2950   73.5937   -8.2750 H   0  0  0  0  0  0  0  0  0  0  0  0
   18.6763   71.2677  -10.0203 O   0  0  0  0  0  0  0  0  0  0  0  0
   17.8683   69.2110   -9.4580 O   0  0  0  0  0  0  0  0  0  0  0  0
   18.1843   70.3506   -9.1509 C   0  0  0  0  0  0  0  0  0  0  0  0
  1  4  1  0
  1 24  1  0
  1  2  1  1
  1  3  2  0
 25 28  1  0
 25 24  1  0
 25 26  1  1
 25 27  2  0
  6 11  1  0
  6 12  1  0
 29 36  1  0
 29 37  1  0
  9  7  1  1
  7 13  1  0
 10  8  1  1
  8 14  1  0
  4  5  1  0
 36 28  1  1
 33 30  1  6
 30 38  1  0
 34 31  1  1
 31 39  1  0
 35 32  1  1
 32 40  1  0
 41 43  1  0
 15 19  2  0
 42 43  2  0
 16 22  2  0
 12 17  1  6
 17 19  1  0
 17 20  1  0
 18 19  1  0
 18 22  1  0
 18 23  1  0
  9 10  1  0
  9 11  1  0
 10 12  1  0
 11  5  1  6
 33 34  1  0
 33 35  1  0
 34 36  1  0
 35 37  1  0
 37 43  1  6
 20 21  2  0
 21 22  1  0
M  CHG  3   2  -1  26  -1  41  -1
M  END
>  <COMPND>  (179) 
    udp_gluA.pdb 

>  <AUTHOR>  (179) 
    GENERATED BY OPEN BABEL 3.1.1

>  <MASTER>  (179) 
        0    0    0    0    0    0    0    0   56    0   56    0

>  <minimizedAffinity>  (179) 
-7.28498

>  <CNNscore>  (179) 
0.2774758339

>  <CNNaffinity>  (179) 
3.9101138115

>  <CNN_VS>  (179) 
1.0849621296

>  <CNNaffinity_variance>  (179) 
0.0499352738

$$$$
180
     RDKit          3D

 43 45  0  0  0  0  0  0  0  0999 V2000
   22.4729   74.2796   -4.8418 P   0  0  2  0  0  0  0  0  0  0  0  0
   23.3823   73.8282   -6.1020 O   0  0  0  0  0  0  0  0  0  0  0  0
   22.4221   75.7588   -4.5947 O   0  0  0  0  0  0  0  0  0  0  0  0
   23.0324   73.3816   -3.6176 O   0  0  0  0  0  0  0  0  0  0  0  0
   22.3450   73.4217   -2.3805 C   0  0  0  0  0  0  0  0  0  0  0  0
   22.6690   72.6778   -0.1179 O   0  0  0  0  0  0  0  0  0  0  0  0
   22.8960   69.9130   -1.2562 O   0  0  0  0  0  0  0  0  0  0  0  0
   20.3423   69.9562   -0.3006 O   0  0  0  0  0  0  0  0  0  0  0  0
   22.0617   70.9952   -1.6705 C   0  0  1  0  0  0  0  0  0  0  0  0
   20.9224   71.1832   -0.6913 C   0  0  2  0  0  0  0  0  0  0  0  0
   22.8478   72.2875   -1.4966 C   0  0  1  0  0  0  0  0  0  0  0  0
   21.6103   71.8975    0.4596 C   0  0  2  0  0  0  0  0  0  0  0  0
   22.4152   69.0763   -1.3582 H   0  0  0  0  0  0  0  0  0  0  0  0
   19.9172   69.5408   -1.0679 H   0  0  0  0  0  0  0  0  0  0  0  0
   22.0881   72.8809    3.0636 O   0  0  0  0  0  0  0  0  0  0  0  0
   18.1305   75.2431    3.0951 O   0  0  0  0  0  0  0  0  0  0  0  0
   20.7214   72.7712    1.1719 N   0  0  0  0  0  0  0  0  0  0  0  0
   20.1161   74.0556    3.0772 N   0  0  0  0  0  0  0  0  0  0  0  0
   21.0552   73.2073    2.4760 C   0  0  0  0  0  0  0  0  0  0  0  0
   19.5359   73.1881    0.5790 C   0  0  0  0  0  0  0  0  0  0  0  0
   18.6507   73.9970    1.1646 C   0  0  0  0  0  0  0  0  0  0  0  0
   18.9232   74.4973    2.5280 C   0  0  0  0  0  0  0  0  0  0  0  0
   20.3256   74.3708    3.9861 H   0  0  0  0  0  0  0  0  0  0  0  0
   21.0418   73.6014   -5.1656 O   0  0  0  0  0  0  0  0  0  0  0  0
   19.5381   74.0716   -4.8030 P   0  0  2  0  0  0  0  0  0  0  0  0
   19.0400   74.7976   -6.1614 O   0  0  0  0  0  0  0  0  0  0  0  0
   19.4400   74.9268   -3.5730 O   0  0  0  0  0  0  0  0  0  0  0  0
   18.6862   72.7033   -4.7368 O   0  0  0  0  0  0  0  0  0  0  0  0
   19.0092   70.4708   -4.0151 O   0  0  0  0  0  0  0  0  0  0  0  0
   17.1850   69.9139   -7.6798 O   0  0  0  0  0  0  0  0  0  0  0  0
   19.2583   71.9457   -7.3511 O   0  0  0  0  0  0  0  0  0  0  0  0
   15.6747   69.5333   -5.2252 O   0  0  0  0  0  0  0  0  0  0  0  0
   17.4625   70.5853   -6.4509 C   0  0  2  0  0  0  0  0  0  0  0  0
   18.9471   70.9453   -6.3883 C   0  0  2  0  0  0  0  0  0  0  0  0
   17.0948   69.6420   -5.3032 C   0  0  1  0  0  0  0  0  0  0  0  0
   19.3280   71.4564   -4.9981 C   0  0  1  0  0  0  0  0  0  0  0  0
   17.6185   70.1600   -3.9668 C   0  0  1  0  0  0  0  0  0  0  0  0
   17.4111   70.4943   -8.4237 H   0  0  0  0  0  0  0  0  0  0  0  0
   19.0189   71.6282   -8.2356 H   0  0  0  0  0  0  0  0  0  0  0  0
   15.3287   69.2048   -6.0697 H   0  0  0  0  0  0  0  0  0  0  0  0
   18.7494   68.9465   -2.3085 O   0  0  0  0  0  0  0  0  0  0  0  0
   16.5511   68.4449   -2.6475 O   0  0  0  0  0  0  0  0  0  0  0  0
   17.5488   69.0951   -2.9211 C   0  0  0  0  0  0  0  0  0  0  0  0
  1  4  1  0
  1 24  1  0
  1  2  1  6
  1  3  2  0
 25 28  1  0
 25 24  1  0
 25 26  1  6
 25 27  2  0
  6 11  1  0
  6 12  1  0
 29 36  1  0
 29 37  1  0
  9  7  1  1
  7 13  1  0
 10  8  1  1
  8 14  1  0
  4  5  1  0
 36 28  1  1
 33 30  1  6
 30 38  1  0
 34 31  1  6
 31 39  1  0
 35 32  1  1
 32 40  1  0
 41 43  1  0
 15 19  2  0
 42 43  2  0
 16 22  2  0
 12 17  1  6
 17 19  1  0
 17 20  1  0
 18 19  1  0
 18 22  1  0
 18 23  1  0
  9 10  1  0
  9 11  1  0
 10 12  1  0
 11  5  1  6
 33 34  1  0
 33 35  1  0
 34 36  1  0
 35 37  1  0
 37 43  1  1
 20 21  2  0
 21 22  1  0
M  CHG  3   2  -1  26  -1  41  -1
M  END
>  <COMPND>  (180) 
    udp_gluA.pdb 

>  <AUTHOR>  (180) 
    GENERATED BY OPEN BABEL 3.1.1

>  <MASTER>  (180) 
        0    0    0    0    0    0    0    0   56    0   56    0

>  <minimizedAffinity>  (180) 
-7.62840

>  <CNNscore>  (180) 
0.2639950216

>  <CNNaffinity>  (180) 
3.9528267384

>  <CNN_VS>  (180) 
1.0435265303

>  <CNNaffinity_variance>  (180) 
0.4566670060

$$$$
181
     RDKit          3D

 43 45  0  0  0  0  0  0  0  0999 V2000
   20.7651   69.9708   -1.7620 P   0  0  2  0  0  0  0  0  0  0  0  0
   22.3793   69.8873   -1.6841 O   0  0  0  0  0  0  0  0  0  0  0  0
   20.0390   69.2135   -0.6891 O   0  0  0  0  0  0  0  0  0  0  0  0
   20.4263   69.5337   -3.2826 O   0  0  0  0  0  0  0  0  0  0  0  0
   19.1924   68.8896   -3.5419 C   0  0  0  0  0  0  0  0  0  0  0  0
   18.2652   70.8691   -4.5416 O   0  0  0  0  0  0  0  0  0  0  0  0
   15.7306   70.1897   -3.0904 O   0  0  0  0  0  0  0  0  0  0  0  0
   15.2156   69.3264   -5.6253 O   0  0  0  0  0  0  0  0  0  0  0  0
   16.6892   69.3187   -3.6912 C   0  0  1  0  0  0  0  0  0  0  0  0
   16.5617   69.3594   -5.1993 C   0  0  2  0  0  0  0  0  0  0  0  0
   18.0714   69.9185   -3.4720 C   0  0  1  0  0  0  0  0  0  0  0  0
   17.2505   70.6703   -5.5387 C   0  0  2  0  0  0  0  0  0  0  0  0
   14.8395   69.8272   -3.2176 H   0  0  0  0  0  0  0  0  0  0  0  0
   14.8218   68.4721   -5.3864 H   0  0  0  0  0  0  0  0  0  0  0  0
   15.8362   70.7741   -7.9812 O   0  0  0  0  0  0  0  0  0  0  0  0
   19.7226   70.5684  -10.4505 O   0  0  0  0  0  0  0  0  0  0  0  0
   17.8678   70.6454   -6.8346 N   0  0  0  0  0  0  0  0  0  0  0  0
   17.7731   70.6705   -9.2087 N   0  0  0  0  0  0  0  0  0  0  0  0
   17.0664   70.7022   -7.9993 C   0  0  0  0  0  0  0  0  0  0  0  0
   19.2510   70.5674   -6.9425 C   0  0  0  0  0  0  0  0  0  0  0  0
   19.9103   70.5382   -8.1024 C   0  0  0  0  0  0  0  0  0  0  0  0
   19.1474   70.5928   -9.3667 C   0  0  0  0  0  0  0  0  0  0  0  0
   17.2366   70.7068  -10.0334 H   0  0  0  0  0  0  0  0  0  0  0  0
   20.4840   71.5626   -1.7703 O   0  0  0  0  0  0  0  0  0  0  0  0
   20.2494   72.6054   -0.5574 P   0  0  2  0  0  0  0  0  0  0  0  0
   21.1734   72.0065    0.6292 O   0  0  0  0  0  0  0  0  0  0  0  0
   18.8088   72.7988   -0.1816 O   0  0  0  0  0  0  0  0  0  0  0  0
   21.0064   73.9518   -1.0229 O   0  0  0  0  0  0  0  0  0  0  0  0
   22.9546   73.2763   -2.1880 O   0  0  0  0  0  0  0  0  0  0  0  0
   23.1899   77.3912   -2.4714 O   0  0  0  0  0  0  0  0  0  0  0  0
   22.3862   76.1229    0.0346 O   0  0  0  0  0  0  0  0  0  0  0  0
   22.3636   75.8151   -4.7701 O   0  0  0  0  0  0  0  0  0  0  0  0
   22.5337   76.1261   -2.3870 C   0  0  2  0  0  0  0  0  0  0  0  0
   22.9287   75.4307   -1.0840 C   0  0  2  0  0  0  0  0  0  0  0  0
   22.9678   75.2870   -3.5909 C   0  0  1  0  0  0  0  0  0  0  0  0
   22.4319   73.9844   -1.0634 C   0  0  1  0  0  0  0  0  0  0  0  0
   22.5433   73.8295   -3.4362 C   0  0  1  0  0  0  0  0  0  0  0  0
   22.9292   77.9418   -1.7163 H   0  0  0  0  0  0  0  0  0  0  0  0
   22.6971   77.0414    0.0277 H   0  0  0  0  0  0  0  0  0  0  0  0
   22.6256   76.7425   -4.8802 H   0  0  0  0  0  0  0  0  0  0  0  0
   23.8130   71.8957   -3.8235 O   0  0  0  0  0  0  0  0  0  0  0  0
   23.2971   73.1814   -5.6346 O   0  0  0  0  0  0  0  0  0  0  0  0
   23.2431   72.9645   -4.4334 C   0  0  0  0  0  0  0  0  0  0  0  0
  1  4  1  0
  1 24  1  0
  1  2  1  1
  1  3  2  0
 25 28  1  0
 25 24  1  0
 25 26  1  1
 25 27  2  0
  6 11  1  0
  6 12  1  0
 29 36  1  0
 29 37  1  0
  9  7  1  1
  7 13  1  0
 10  8  1  1
  8 14  1  0
  4  5  1  0
 36 28  1  6
 33 30  1  6
 30 38  1  0
 34 31  1  1
 31 39  1  0
 35 32  1  6
 32 40  1  0
 41 43  1  0
 15 19  2  0
 42 43  2  0
 16 22  2  0
 12 17  1  6
 17 19  1  0
 17 20  1  0
 18 19  1  0
 18 22  1  0
 18 23  1  0
  9 10  1  0
  9 11  1  0
 10 12  1  0
 11  5  1  6
 33 34  1  0
 33 35  1  0
 34 36  1  0
 35 37  1  0
 37 43  1  6
 20 21  2  0
 21 22  1  0
M  CHG  3   2  -1  26  -1  41  -1
M  END
>  <COMPND>  (181) 
    udp_gluA.pdb 

>  <AUTHOR>  (181) 
    GENERATED BY OPEN BABEL 3.1.1

>  <MASTER>  (181) 
        0    0    0    0    0    0    0    0   56    0   56    0

>  <minimizedAffinity>  (181) 
-7.76078

>  <CNNscore>  (181) 
0.8941707015

>  <CNNaffinity>  (181) 
4.8050293922

>  <CNN_VS>  (181) 
4.2965164185

>  <CNNaffinity_variance>  (181) 
0.1373860240

$$$$
182
     RDKit          3D

 43 45  0  0  0  0  0  0  0  0999 V2000
   22.9420   71.0934   -2.9734 P   0  0  2  0  0  0  0  0  0  0  0  0
   23.7564   72.1634   -3.8739 O   0  0  0  0  0  0  0  0  0  0  0  0
   23.6940   69.8361   -2.6487 O   0  0  0  0  0  0  0  0  0  0  0  0
   21.5497   70.8928   -3.7728 O   0  0  0  0  0  0  0  0  0  0  0  0
   20.8108   69.7047   -3.5561 C   0  0  0  0  0  0  0  0  0  0  0  0
   18.8516   70.9282   -4.2213 O   0  0  0  0  0  0  0  0  0  0  0  0
   17.3462   69.2091   -2.2796 O   0  0  0  0  0  0  0  0  0  0  0  0
   16.7689   68.0458   -4.6774 O   0  0  0  0  0  0  0  0  0  0  0  0
   18.4473   68.8690   -3.1226 C   0  0  1  0  0  0  0  0  0  0  0  0
   17.9887   68.7478   -4.5604 C   0  0  2  0  0  0  0  0  0  0  0  0
   19.3794   70.0713   -3.1857 C   0  0  1  0  0  0  0  0  0  0  0  0
   17.8677   70.2039   -4.9766 C   0  0  2  0  0  0  0  0  0  0  0  0
   16.7366   68.4561   -2.2239 H   0  0  0  0  0  0  0  0  0  0  0  0
   16.8984   67.1244   -4.4012 H   0  0  0  0  0  0  0  0  0  0  0  0
   15.8918   70.0457   -6.9884 O   0  0  0  0  0  0  0  0  0  0  0  0
   18.9470   70.9598  -10.3162 O   0  0  0  0  0  0  0  0  0  0  0  0
   18.1192   70.3963   -6.3768 N   0  0  0  0  0  0  0  0  0  0  0  0
   17.4155   70.5001   -8.6440 N   0  0  0  0  0  0  0  0  0  0  0  0
   17.0564   70.2950   -7.3054 C   0  0  0  0  0  0  0  0  0  0  0  0
   19.4055   70.6832   -6.8174 C   0  0  0  0  0  0  0  0  0  0  0  0
   19.7324   70.8763   -8.0967 C   0  0  0  0  0  0  0  0  0  0  0  0
   18.6806   70.7872   -9.1307 C   0  0  0  0  0  0  0  0  0  0  0  0
   16.6928   70.4326   -9.3092 H   0  0  0  0  0  0  0  0  0  0  0  0
   22.4996   71.9649   -1.6860 O   0  0  0  0  0  0  0  0  0  0  0  0
   22.0807   71.5129   -0.1914 P   0  0  2  0  0  0  0  0  0  0  0  0
   23.4372   70.8451    0.3869 O   0  0  0  0  0  0  0  0  0  0  0  0
   20.8771   70.6173   -0.1334 O   0  0  0  0  0  0  0  0  0  0  0  0
   21.9267   72.8951    0.6262 O   0  0  0  0  0  0  0  0  0  0  0  0
   22.5450   73.6876    2.7707 O   0  0  0  0  0  0  0  0  0  0  0  0
   18.7176   75.1952    2.3885 O   0  0  0  0  0  0  0  0  0  0  0  0
   19.3293   72.4718    1.5265 O   0  0  0  0  0  0  0  0  0  0  0  0
   21.0148   76.9486    2.0731 O   0  0  0  0  0  0  0  0  0  0  0  0
   20.0011   74.7673    1.9332 C   0  0  2  0  0  0  0  0  0  0  0  0
   20.2053   73.2944    2.2885 C   0  0  2  0  0  0  0  0  0  0  0  0
   21.0596   75.6325    2.6211 C   0  0  1  0  0  0  0  0  0  0  0  0
   21.6487   72.8630    2.0249 C   0  0  1  0  0  0  0  0  0  0  0  0
   22.4615   75.0660    2.4156 C   0  0  1  0  0  0  0  0  0  0  0  0
   18.0288   74.6594    1.9647 H   0  0  0  0  0  0  0  0  0  0  0  0
   18.4117   72.7402    1.6887 H   0  0  0  0  0  0  0  0  0  0  0  0
   20.1276   77.3205    2.1971 H   0  0  0  0  0  0  0  0  0  0  0  0
   23.8207   74.8436    4.3142 O   0  0  0  0  0  0  0  0  0  0  0  0
   23.8383   76.8617    3.2531 O   0  0  0  0  0  0  0  0  0  0  0  0
   23.4361   75.7117    3.3460 C   0  0  0  0  0  0  0  0  0  0  0  0
  1  4  1  0
  1 24  1  0
  1  2  1  6
  1  3  2  0
 25 28  1  0
 25 24  1  0
 25 26  1  1
 25 27  2  0
  6 11  1  0
  6 12  1  0
 29 36  1  0
 29 37  1  0
  9  7  1  1
  7 13  1  0
 10  8  1  1
  8 14  1  0
  4  5  1  0
 36 28  1  6
 33 30  1  1
 30 38  1  0
 34 31  1  6
 31 39  1  0
 35 32  1  6
 32 40  1  0
 41 43  1  0
 15 19  2  0
 42 43  2  0
 16 22  2  0
 12 17  1  6
 17 19  1  0
 17 20  1  0
 18 19  1  0
 18 22  1  0
 18 23  1  0
  9 10  1  0
  9 11  1  0
 10 12  1  0
 11  5  1  6
 33 34  1  0
 33 35  1  0
 34 36  1  0
 35 37  1  0
 37 43  1  1
 20 21  2  0
 21 22  1  0
M  CHG  3   2  -1  26  -1  41  -1
M  END
>  <COMPND>  (182) 
    udp_gluA.pdb 

>  <AUTHOR>  (182) 
    GENERATED BY OPEN BABEL 3.1.1

>  <MASTER>  (182) 
        0    0    0    0    0    0    0    0   56    0   56    0

>  <minimizedAffinity>  (182) 
-8.13360

>  <CNNscore>  (182) 
0.7562561035

>  <CNNaffinity>  (182) 
4.7740278244

>  <CNN_VS>  (182) 
3.6103875637

>  <CNNaffinity_variance>  (182) 
0.0671454668

$$$$
183
     RDKit          3D

 43 45  0  0  0  0  0  0  0  0999 V2000
   21.0541   70.1868   -1.5504 P   0  0  2  0  0  0  0  0  0  0  0  0
   22.6131   69.7640   -1.6487 O   0  0  0  0  0  0  0  0  0  0  0  0
   20.2156   69.3138   -0.6635 O   0  0  0  0  0  0  0  0  0  0  0  0
   20.5793   70.2823   -3.0942 O   0  0  0  0  0  0  0  0  0  0  0  0
   19.4381   69.5476   -3.4973 C   0  0  0  0  0  0  0  0  0  0  0  0
   18.3129   71.3084   -4.6851 O   0  0  0  0  0  0  0  0  0  0  0  0
   15.8828   70.5812   -3.0859 O   0  0  0  0  0  0  0  0  0  0  0  0
   15.3940   69.3879   -5.4886 O   0  0  0  0  0  0  0  0  0  0  0  0
   16.9036   69.7343   -3.6143 C   0  0  1  0  0  0  0  0  0  0  0  0
   16.7404   69.5885   -5.1124 C   0  0  2  0  0  0  0  0  0  0  0  0
   18.2297   70.4749   -3.5088 C   0  0  1  0  0  0  0  0  0  0  0  0
   17.2993   70.9067   -5.6203 C   0  0  2  0  0  0  0  0  0  0  0  0
   15.0259   70.1294   -3.1426 H   0  0  0  0  0  0  0  0  0  0  0  0
   15.0849   68.5357   -5.1418 H   0  0  0  0  0  0  0  0  0  0  0  0
   15.8306   70.8090   -8.0307 O   0  0  0  0  0  0  0  0  0  0  0  0
   19.6636   70.4435  -10.5643 O   0  0  0  0  0  0  0  0  0  0  0  0
   17.8881   70.7863   -6.9240 N   0  0  0  0  0  0  0  0  0  0  0  0
   17.7410   70.6260   -9.2902 N   0  0  0  0  0  0  0  0  0  0  0  0
   17.0608   70.7458   -8.0711 C   0  0  0  0  0  0  0  0  0  0  0  0
   19.2693   70.7113   -7.0569 C   0  0  0  0  0  0  0  0  0  0  0  0
   19.9032   70.5974   -8.2257 C   0  0  0  0  0  0  0  0  0  0  0  0
   19.1122   70.5473   -9.4727 C   0  0  0  0  0  0  0  0  0  0  0  0
   17.1861   70.5938  -10.1028 H   0  0  0  0  0  0  0  0  0  0  0  0
   21.1264   71.7364   -1.0959 O   0  0  0  0  0  0  0  0  0  0  0  0
   21.4961   72.4091    0.3269 P   0  0  2  0  0  0  0  0  0  0  0  0
   22.2389   73.7838   -0.0958 O   0  0  0  0  0  0  0  0  0  0  0  0
   22.3010   71.5253    1.2353 O   0  0  0  0  0  0  0  0  0  0  0  0
   20.0794   72.8825    0.9362 O   0  0  0  0  0  0  0  0  0  0  0  0
   19.0026   74.5921   -0.2995 O   0  0  0  0  0  0  0  0  0  0  0  0
   16.6841   74.4362    3.1163 O   0  0  0  0  0  0  0  0  0  0  0  0
   19.5956   74.2760    3.2943 O   0  0  0  0  0  0  0  0  0  0  0  0
   15.7078   73.2763    0.6359 O   0  0  0  0  0  0  0  0  0  0  0  0
   17.5231   73.9145    2.0859 C   0  0  2  0  0  0  0  0  0  0  0  0
   18.8758   74.6263    2.1179 C   0  0  2  0  0  0  0  0  0  0  0  0
   16.8277   74.1530    0.7437 C   0  0  1  0  0  0  0  0  0  0  0  0
   19.7153   74.2610    0.8929 C   0  0  1  0  0  0  0  0  0  0  0  0
   17.7698   73.8870   -0.4268 C   0  0  1  0  0  0  0  0  0  0  0  0
   17.1056   74.2960    3.9788 H   0  0  0  0  0  0  0  0  0  0  0  0
   19.0686   74.5048    4.0755 H   0  0  0  0  0  0  0  0  0  0  0  0
   15.1004   73.4352    1.3753 H   0  0  0  0  0  0  0  0  0  0  0  0
   16.5810   73.4509   -2.4011 O   0  0  0  0  0  0  0  0  0  0  0  0
   17.2816   75.5939   -2.0607 O   0  0  0  0  0  0  0  0  0  0  0  0
   17.2027   74.4297   -1.6981 C   0  0  0  0  0  0  0  0  0  0  0  0
  1  4  1  0
  1 24  1  0
  1  2  1  6
  1  3  2  0
 25 28  1  0
 25 24  1  0
 25 26  1  6
 25 27  2  0
  6 11  1  0
  6 12  1  0
 29 36  1  0
 29 37  1  0
  9  7  1  6
  7 13  1  0
 10  8  1  1
  8 14  1  0
  4  5  1  0
 36 28  1  6
 33 30  1  1
 30 38  1  0
 34 31  1  1
 31 39  1  0
 35 32  1  6
 32 40  1  0
 41 43  1  0
 15 19  2  0
 42 43  2  0
 16 22  2  0
 12 17  1  6
 17 19  1  0
 17 20  1  0
 18 19  1  0
 18 22  1  0
 18 23  1  0
  9 10  1  0
  9 11  1  0
 10 12  1  0
 11  5  1  6
 33 34  1  0
 33 35  1  0
 34 36  1  0
 35 37  1  0
 37 43  1  6
 20 21  2  0
 21 22  1  0
M  CHG  3   2  -1  26  -1  41  -1
M  END
>  <COMPND>  (183) 
    udp_gluA.pdb 

>  <AUTHOR>  (183) 
    GENERATED BY OPEN BABEL 3.1.1

>  <MASTER>  (183) 
        0    0    0    0    0    0    0    0   56    0   56    0

>  <minimizedAffinity>  (183) 
-7.39697

>  <CNNscore>  (183) 
0.7516787052

>  <CNNaffinity>  (183) 
4.5921754837

>  <CNN_VS>  (183) 
3.4518406391

>  <CNNaffinity_variance>  (183) 
0.0509992465

$$$$
184
     RDKit          3D

 43 45  0  0  0  0  0  0  0  0999 V2000
   20.1192   70.8297   -1.3986 P   0  0  2  0  0  0  0  0  0  0  0  0
   20.7568   70.5052    0.0529 O   0  0  0  0  0  0  0  0  0  0  0  0
   19.3956   72.1409   -1.4939 O   0  0  0  0  0  0  0  0  0  0  0  0
   19.2394   69.5152   -1.7393 O   0  0  0  0  0  0  0  0  0  0  0  0
   18.7374   69.3597   -3.0539 C   0  0  0  0  0  0  0  0  0  0  0  0
   17.7797   71.1523   -4.3373 O   0  0  0  0  0  0  0  0  0  0  0  0
   15.1354   70.2973   -3.2112 O   0  0  0  0  0  0  0  0  0  0  0  0
   15.0966   69.2124   -5.7127 O   0  0  0  0  0  0  0  0  0  0  0  0
   16.2552   69.4987   -3.5942 C   0  0  1  0  0  0  0  0  0  0  0  0
   16.3531   69.4227   -5.1032 C   0  0  2  0  0  0  0  0  0  0  0  0
   17.5221   70.2609   -3.2308 C   0  0  1  0  0  0  0  0  0  0  0  0
   16.9518   70.7754   -5.4489 C   0  0  2  0  0  0  0  0  0  0  0  0
   14.3140   69.8309   -3.4336 H   0  0  0  0  0  0  0  0  0  0  0  0
   14.7579   68.3381   -5.4621 H   0  0  0  0  0  0  0  0  0  0  0  0
   15.9239   70.8883   -8.0771 O   0  0  0  0  0  0  0  0  0  0  0  0
   20.1336   70.5969   -9.9313 O   0  0  0  0  0  0  0  0  0  0  0  0
   17.7567   70.7310   -6.6367 N   0  0  0  0  0  0  0  0  0  0  0  0
   18.0215   70.7420   -8.9981 N   0  0  0  0  0  0  0  0  0  0  0  0
   17.1413   70.7943   -7.9093 C   0  0  0  0  0  0  0  0  0  0  0  0
   19.1387   70.6276   -6.5346 C   0  0  0  0  0  0  0  0  0  0  0  0
   19.9646   70.5790   -7.5816 C   0  0  0  0  0  0  0  0  0  0  0  0
   19.4022   70.6387   -8.9467 C   0  0  0  0  0  0  0  0  0  0  0  0
   17.6161   70.7824   -9.8944 H   0  0  0  0  0  0  0  0  0  0  0  0
   21.3864   70.6863   -2.3919 O   0  0  0  0  0  0  0  0  0  0  0  0
   22.8239   71.4260   -2.3921 P   0  0  2  0  0  0  0  0  0  0  0  0
   23.8445   70.2507   -2.8365 O   0  0  0  0  0  0  0  0  0  0  0  0
   23.1746   72.0908   -1.0925 O   0  0  0  0  0  0  0  0  0  0  0  0
   22.7719   72.4213   -3.6606 O   0  0  0  0  0  0  0  0  0  0  0  0
   23.0105   74.7768   -3.7217 O   0  0  0  0  0  0  0  0  0  0  0  0
   20.4519   74.1084   -6.8958 O   0  0  0  0  0  0  0  0  0  0  0  0
   20.0962   72.6691   -4.3786 O   0  0  0  0  0  0  0  0  0  0  0  0
   23.2524   74.7178   -7.3823 O   0  0  0  0  0  0  0  0  0  0  0  0
   21.5120   73.8029   -5.9899 C   0  0  2  0  0  0  0  0  0  0  0  0
   20.9715   73.7762   -4.5600 C   0  0  2  0  0  0  0  0  0  0  0  0
   22.5838   74.8857   -6.1336 C   0  0  1  0  0  0  0  0  0  0  0  0
   22.1121   73.6807   -3.5456 C   0  0  1  0  0  0  0  0  0  0  0  0
   23.6156   74.8007   -5.0126 C   0  0  1  0  0  0  0  0  0  0  0  0
   19.7588   73.4335   -6.8221 H   0  0  0  0  0  0  0  0  0  0  0  0
   19.3702   72.7232   -5.0192 H   0  0  0  0  0  0  0  0  0  0  0  0
   22.6068   74.7697   -8.1044 H   0  0  0  0  0  0  0  0  0  0  0  0
   23.6741   77.1383   -4.8290 O   0  0  0  0  0  0  0  0  0  0  0  0
   25.6726   76.0613   -5.0424 O   0  0  0  0  0  0  0  0  0  0  0  0
   24.4532   76.0370   -4.9677 C   0  0  0  0  0  0  0  0  0  0  0  0
  1  4  1  0
  1 24  1  0
  1  2  1  1
  1  3  2  0
 25 28  1  0
 25 24  1  0
 25 26  1  6
 25 27  2  0
  6 11  1  0
  6 12  1  0
 29 36  1  0
 29 37  1  0
  9  7  1  6
  7 13  1  0
 10  8  1  6
  8 14  1  0
  4  5  1  0
 36 28  1  6
 33 30  1  6
 30 38  1  0
 34 31  1  6
 31 39  1  0
 35 32  1  6
 32 40  1  0
 41 43  1  0
 15 19  2  0
 42 43  2  0
 16 22  2  0
 12 17  1  6
 17 19  1  0
 17 20  1  0
 18 19  1  0
 18 22  1  0
 18 23  1  0
  9 10  1  0
  9 11  1  0
 10 12  1  0
 11  5  1  6
 33 34  1  0
 33 35  1  0
 34 36  1  0
 35 37  1  0
 37 43  1  1
 20 21  2  0
 21 22  1  0
M  CHG  3   2  -1  26  -1  41  -1
M  END
>  <COMPND>  (184) 
    udp_gluA.pdb 

>  <AUTHOR>  (184) 
    GENERATED BY OPEN BABEL 3.1.1

>  <MASTER>  (184) 
        0    0    0    0    0    0    0    0   56    0   56    0

>  <minimizedAffinity>  (184) 
-7.54204

>  <CNNscore>  (184) 
0.6185581088

>  <CNNaffinity>  (184) 
4.4612836838

>  <CNN_VS>  (184) 
2.7595632076

>  <CNNaffinity_variance>  (184) 
0.3592217267

$$$$
185
     RDKit          3D

 43 45  0  0  0  0  0  0  0  0999 V2000
   22.7828   72.8538   -3.9709 P   0  0  2  0  0  0  0  0  0  0  0  0
   24.2145   72.8950   -4.7240 O   0  0  0  0  0  0  0  0  0  0  0  0
   22.4863   74.0452   -3.1080 O   0  0  0  0  0  0  0  0  0  0  0  0
   22.7816   71.4224   -3.2167 O   0  0  0  0  0  0  0  0  0  0  0  0
   23.4588   71.3099   -1.9785 C   0  0  0  0  0  0  0  0  0  0  0  0
   22.8398   71.0731    0.3320 O   0  0  0  0  0  0  0  0  0  0  0  0
   20.3713   69.6923   -0.6637 O   0  0  0  0  0  0  0  0  0  0  0  0
   19.4612   72.1973   -0.0870 O   0  0  0  0  0  0  0  0  0  0  0  0
   21.0826   70.7924   -1.2314 C   0  0  1  0  0  0  0  0  0  0  0  0
   20.8227   72.0525   -0.4333 C   0  0  2  0  0  0  0  0  0  0  0  0
   22.5689   70.5646   -0.9921 C   0  0  1  0  0  0  0  0  0  0  0  0
   21.7158   71.8481    0.7785 C   0  0  2  0  0  0  0  0  0  0  0  0
   19.4191   69.8154   -0.8041 H   0  0  0  0  0  0  0  0  0  0  0  0
   18.9346   72.3249   -0.8922 H   0  0  0  0  0  0  0  0  0  0  0  0
   21.9257   72.3978    3.5408 O   0  0  0  0  0  0  0  0  0  0  0  0
   23.5514   76.6393    2.7592 O   0  0  0  0  0  0  0  0  0  0  0  0
   22.1908   73.0879    1.3246 N   0  0  0  0  0  0  0  0  0  0  0  0
   22.7342   74.5101    3.1489 N   0  0  0  0  0  0  0  0  0  0  0  0
   22.2570   73.2621    2.7272 C   0  0  0  0  0  0  0  0  0  0  0  0
   22.5862   74.1138    0.4747 C   0  0  0  0  0  0  0  0  0  0  0  0
   23.0391   75.2978    0.8916 C   0  0  0  0  0  0  0  0  0  0  0  0
   23.1386   75.5614    2.3421 C   0  0  0  0  0  0  0  0  0  0  0  0
   22.7873   74.6557    4.1212 H   0  0  0  0  0  0  0  0  0  0  0  0
   21.7404   72.6257   -5.1851 O   0  0  0  0  0  0  0  0  0  0  0  0
   20.2500   73.2033   -5.4271 P   0  0  2  0  0  0  0  0  0  0  0  0
   20.5146   74.7415   -5.8564 O   0  0  0  0  0  0  0  0  0  0  0  0
   19.3277   73.0385   -4.2541 O   0  0  0  0  0  0  0  0  0  0  0  0
   19.7470   72.4837   -6.7805 O   0  0  0  0  0  0  0  0  0  0  0  0
   19.0807   70.3430   -6.0173 O   0  0  0  0  0  0  0  0  0  0  0  0
   17.7801   70.2800   -9.9381 O   0  0  0  0  0  0  0  0  0  0  0  0
   20.3905   71.4039   -9.2616 O   0  0  0  0  0  0  0  0  0  0  0  0
   15.8741   70.6482   -7.7743 O   0  0  0  0  0  0  0  0  0  0  0  0
   18.0955   70.8746   -8.6791 C   0  0  2  0  0  0  0  0  0  0  0  0
   19.5760   70.6557   -8.3664 C   0  0  2  0  0  0  0  0  0  0  0  0
   17.2223   70.2120   -7.6113 C   0  0  1  0  0  0  0  0  0  0  0  0
   19.8996   71.0735   -6.9312 C   0  0  1  0  0  0  0  0  0  0  0  0
   17.6871   70.5793   -6.2050 C   0  0  1  0  0  0  0  0  0  0  0  0
   18.3232   70.6854  -10.6324 H   0  0  0  0  0  0  0  0  0  0  0  0
   20.1902   71.1440  -10.1742 H   0  0  0  0  0  0  0  0  0  0  0  0
   15.5661   70.4206   -8.6654 H   0  0  0  0  0  0  0  0  0  0  0  0
   17.9588   69.3210   -4.2443 O   0  0  0  0  0  0  0  0  0  0  0  0
   15.8863   69.3311   -5.1948 O   0  0  0  0  0  0  0  0  0  0  0  0
   17.0554   69.6862   -5.1873 C   0  0  0  0  0  0  0  0  0  0  0  0
  1  4  1  0
  1 24  1  0
  1  2  1  6
  1  3  2  0
 25 28  1  0
 25 24  1  0
 25 26  1  6
 25 27  2  0
  6 11  1  0
  6 12  1  0
 29 36  1  0
 29 37  1  0
  9  7  1  1
  7 13  1  0
 10  8  1  1
  8 14  1  0
  4  5  1  0
 36 28  1  6
 33 30  1  6
 30 38  1  0
 34 31  1  6
 31 39  1  0
 35 32  1  6
 32 40  1  0
 41 43  1  0
 15 19  2  0
 42 43  2  0
 16 22  2  0
 12 17  1  6
 17 19  1  0
 17 20  1  0
 18 19  1  0
 18 22  1  0
 18 23  1  0
  9 10  1  0
  9 11  1  0
 10 12  1  0
 11  5  1  6
 33 34  1  0
 33 35  1  0
 34 36  1  0
 35 37  1  0
 37 43  1  1
 20 21  2  0
 21 22  1  0
M  CHG  3   2  -1  26  -1  41  -1
M  END
>  <COMPND>  (185) 
    udp_gluA.pdb 

>  <AUTHOR>  (185) 
    GENERATED BY OPEN BABEL 3.1.1

>  <MASTER>  (185) 
        0    0    0    0    0    0    0    0   56    0   56    0

>  <minimizedAffinity>  (185) 
-8.65425

>  <CNNscore>  (185) 
0.6002303362

>  <CNNaffinity>  (185) 
4.3603510857

>  <CNN_VS>  (185) 
2.6172149181

>  <CNNaffinity_variance>  (185) 
0.1266531050

$$$$
186
     RDKit          3D

 43 45  0  0  0  0  0  0  0  0999 V2000
   22.0567   73.3415   -5.6235 P   0  0  2  0  0  0  0  0  0  0  0  0
   20.9968   72.1935   -5.2022 O   0  0  0  0  0  0  0  0  0  0  0  0
   23.0164   72.9503   -6.7088 O   0  0  0  0  0  0  0  0  0  0  0  0
   22.7270   73.7857   -4.2194 O   0  0  0  0  0  0  0  0  0  0  0  0
   21.9951   73.5782   -3.0253 C   0  0  0  0  0  0  0  0  0  0  0  0
   23.1558   73.0347   -0.9918 O   0  0  0  0  0  0  0  0  0  0  0  0
   22.4589   70.1775   -1.5769 O   0  0  0  0  0  0  0  0  0  0  0  0
   20.6094   70.8688    0.3041 O   0  0  0  0  0  0  0  0  0  0  0  0
   21.6959   71.3606   -1.8149 C   0  0  1  0  0  0  0  0  0  0  0  0
   21.1353   71.8934   -0.5133 C   0  0  2  0  0  0  0  0  0  0  0  0
   22.6594   72.4666   -2.2232 C   0  0  1  0  0  0  0  0  0  0  0  0
   22.3507   72.5662    0.1017 C   0  0  2  0  0  0  0  0  0  0  0  0
   21.8647   69.4565   -1.3144 H   0  0  0  0  0  0  0  0  0  0  0  0
   19.8378   70.4722   -0.1310 H   0  0  0  0  0  0  0  0  0  0  0  0
   21.7094   72.3710    2.8452 O   0  0  0  0  0  0  0  0  0  0  0  0
   21.0102   76.9135    3.1922 O   0  0  0  0  0  0  0  0  0  0  0  0
   21.9974   73.6820    0.9330 N   0  0  0  0  0  0  0  0  0  0  0  0
   21.3608   74.6335    3.0152 N   0  0  0  0  0  0  0  0  0  0  0  0
   21.6926   73.4757    2.2992 C   0  0  0  0  0  0  0  0  0  0  0  0
   21.9571   74.9625    0.3948 C   0  0  0  0  0  0  0  0  0  0  0  0
   21.6392   76.0564    1.0899 C   0  0  0  0  0  0  0  0  0  0  0  0
   21.3065   75.9277    2.5238 C   0  0  0  0  0  0  0  0  0  0  0  0
   21.1427   74.5147    3.9679 H   0  0  0  0  0  0  0  0  0  0  0  0
   21.1062   74.5977   -5.9859 O   0  0  0  0  0  0  0  0  0  0  0  0
   19.5625   74.9024   -5.6148 P   0  0  2  0  0  0  0  0  0  0  0  0
   19.2558   76.2790   -6.4094 O   0  0  0  0  0  0  0  0  0  0  0  0
   19.2841   74.9640   -4.1408 O   0  0  0  0  0  0  0  0  0  0  0  0
   18.7210   73.7780   -6.4087 O   0  0  0  0  0  0  0  0  0  0  0  0
   19.4305   72.9130   -8.4961 O   0  0  0  0  0  0  0  0  0  0  0  0
   15.4033   71.9917   -8.5292 O   0  0  0  0  0  0  0  0  0  0  0  0
   16.3203   74.5888   -7.5554 O   0  0  0  0  0  0  0  0  0  0  0  0
   17.3715   69.9134   -8.0211 O   0  0  0  0  0  0  0  0  0  0  0  0
   16.6829   72.2208   -7.9392 C   0  0  2  0  0  0  0  0  0  0  0  0
   17.1380   73.6486   -8.2425 C   0  0  2  0  0  0  0  0  0  0  0  0
   17.6662   71.2109   -8.5351 C   0  0  1  0  0  0  0  0  0  0  0  0
   18.5948   73.8583   -7.8272 C   0  0  1  0  0  0  0  0  0  0  0  0
   19.1082   71.5607   -8.1791 C   0  0  1  0  0  0  0  0  0  0  0  0
   14.7618   72.6222   -8.1656 H   0  0  0  0  0  0  0  0  0  0  0  0
   15.3944   74.4613   -7.8140 H   0  0  0  0  0  0  0  0  0  0  0  0
   16.4563   69.6788   -8.2407 H   0  0  0  0  0  0  0  0  0  0  0  0
   19.5076   70.4667  -10.2151 O   0  0  0  0  0  0  0  0  0  0  0  0
   21.1992   70.4689   -8.6862 O   0  0  0  0  0  0  0  0  0  0  0  0
   20.0662   70.7815   -9.0202 C   0  0  0  0  0  0  0  0  0  0  0  0
  1  4  1  0
  1 24  1  0
  1  2  1  1
  1  3  2  0
 25 28  1  0
 25 24  1  0
 25 26  1  6
 25 27  2  0
  6 11  1  0
  6 12  1  0
 29 36  1  0
 29 37  1  0
  9  7  1  1
  7 13  1  0
 10  8  1  1
  8 14  1  0
  4  5  1  0
 36 28  1  1
 33 30  1  6
 30 38  1  0
 34 31  1  1
 31 39  1  0
 35 32  1  1
 32 40  1  0
 41 43  1  0
 15 19  2  0
 42 43  2  0
 16 22  2  0
 12 17  1  1
 17 19  1  0
 17 20  1  0
 18 19  1  0
 18 22  1  0
 18 23  1  0
  9 10  1  0
  9 11  1  0
 10 12  1  0
 11  5  1  1
 33 34  1  0
 33 35  1  0
 34 36  1  0
 35 37  1  0
 37 43  1  6
 20 21  2  0
 21 22  1  0
M  CHG  3   2  -1  26  -1  41  -1
M  END
>  <COMPND>  (186) 
    udp_gluA.pdb 

>  <AUTHOR>  (186) 
    GENERATED BY OPEN BABEL 3.1.1

>  <MASTER>  (186) 
        0    0    0    0    0    0    0    0   56    0   56    0

>  <minimizedAffinity>  (186) 
-7.11792

>  <CNNscore>  (186) 
0.5658718944

>  <CNNaffinity>  (186) 
4.3253903389

>  <CNN_VS>  (186) 
2.4476168156

>  <CNNaffinity_variance>  (186) 
0.0055968417

$$$$
187
     RDKit          3D

 43 45  0  0  0  0  0  0  0  0999 V2000
   21.1616   75.0764   -6.0440 P   0  0  2  0  0  0  0  0  0  0  0  0
   20.7571   75.9216   -7.3634 O   0  0  0  0  0  0  0  0  0  0  0  0
   22.6189   75.1160   -5.6883 O   0  0  0  0  0  0  0  0  0  0  0  0
   20.5456   73.6060   -6.3205 O   0  0  0  0  0  0  0  0  0  0  0  0
   19.2125   73.5083   -6.7872 C   0  0  0  0  0  0  0  0  0  0  0  0
   19.2527   71.1512   -7.2568 O   0  0  0  0  0  0  0  0  0  0  0  0
   18.0457   71.8486   -9.9117 O   0  0  0  0  0  0  0  0  0  0  0  0
   15.8901   70.9755   -8.4880 O   0  0  0  0  0  0  0  0  0  0  0  0
   17.8226   72.4439   -8.6333 C   0  0  1  0  0  0  0  0  0  0  0  0
   16.9721   71.5339   -7.7725 C   0  0  2  0  0  0  0  0  0  0  0  0
   19.1460   72.4494   -7.8803 C   0  0  1  0  0  0  0  0  0  0  0  0
   17.9803   70.4884   -7.3269 C   0  0  2  0  0  0  0  0  0  0  0  0
   17.2140   71.8339  -10.4114 H   0  0  0  0  0  0  0  0  0  0  0  0
   15.2767   71.6808   -8.7490 H   0  0  0  0  0  0  0  0  0  0  0  0
   19.8671   70.0891   -5.2637 O   0  0  0  0  0  0  0  0  0  0  0  0
   16.6683   68.3781   -2.4206 O   0  0  0  0  0  0  0  0  0  0  0  0
   17.6677   69.9403   -6.0375 N   0  0  0  0  0  0  0  0  0  0  0  0
   18.2723   69.2364   -3.8500 N   0  0  0  0  0  0  0  0  0  0  0  0
   18.6894   69.7809   -5.0717 C   0  0  0  0  0  0  0  0  0  0  0  0
   16.3622   69.5689   -5.7397 C   0  0  0  0  0  0  0  0  0  0  0  0
   15.9798   69.0513   -4.5707 C   0  0  0  0  0  0  0  0  0  0  0  0
   16.9863   68.8512   -3.5074 C   0  0  0  0  0  0  0  0  0  0  0  0
   18.9664   69.1140   -3.1625 H   0  0  0  0  0  0  0  0  0  0  0  0
   20.1757   75.6764   -4.9122 O   0  0  0  0  0  0  0  0  0  0  0  0
   19.9419   75.2458   -3.3716 P   0  0  2  0  0  0  0  0  0  0  0  0
   18.3550   74.9320   -3.3120 O   0  0  0  0  0  0  0  0  0  0  0  0
   20.4093   76.2622   -2.3704 O   0  0  0  0  0  0  0  0  0  0  0  0
   20.6479   73.8014   -3.2387 O   0  0  0  0  0  0  0  0  0  0  0  0
   20.8471   72.4758   -1.2862 O   0  0  0  0  0  0  0  0  0  0  0  0
   24.1664   71.2970   -3.4449 O   0  0  0  0  0  0  0  0  0  0  0  0
   23.4104   74.1157   -3.3126 O   0  0  0  0  0  0  0  0  0  0  0  0
   21.8363   69.5657   -3.2899 O   0  0  0  0  0  0  0  0  0  0  0  0
   22.8289   71.7609   -3.2609 C   0  0  2  0  0  0  0  0  0  0  0  0
   22.8476   73.0891   -2.5040 C   0  0  2  0  0  0  0  0  0  0  0  0
   22.0673   70.7024   -2.4599 C   0  0  1  0  0  0  0  0  0  0  0  0
   21.4349   73.5013   -2.0875 C   0  0  1  0  0  0  0  0  0  0  0  0
   20.7216   71.2331   -1.9740 C   0  0  1  0  0  0  0  0  0  0  0  0
   24.6698   71.9536   -3.9516 H   0  0  0  0  0  0  0  0  0  0  0  0
   24.3068   73.8606   -3.5807 H   0  0  0  0  0  0  0  0  0  0  0  0
   22.6850   69.2183   -3.6060 H   0  0  0  0  0  0  0  0  0  0  0  0
   20.2530   70.8863    0.2980 O   0  0  0  0  0  0  0  0  0  0  0  0
   19.6290   69.2438   -1.1553 O   0  0  0  0  0  0  0  0  0  0  0  0
   20.1400   70.3314   -0.9342 C   0  0  0  0  0  0  0  0  0  0  0  0
  1  4  1  0
  1 24  1  0
  1  2  1  6
  1  3  2  0
 25 28  1  0
 25 24  1  0
 25 26  1  6
 25 27  2  0
  6 11  1  0
  6 12  1  0
 29 36  1  0
 29 37  1  0
  9  7  1  6
  7 13  1  0
 10  8  1  6
  8 14  1  0
  4  5  1  0
 36 28  1  6
 33 30  1  1
 30 38  1  0
 34 31  1  6
 31 39  1  0
 35 32  1  6
 32 40  1  0
 41 43  1  0
 15 19  2  0
 42 43  2  0
 16 22  2  0
 12 17  1  1
 17 19  1  0
 17 20  1  0
 18 19  1  0
 18 22  1  0
 18 23  1  0
  9 10  1  0
  9 11  1  0
 10 12  1  0
 11  5  1  1
 33 34  1  0
 33 35  1  0
 34 36  1  0
 35 37  1  0
 37 43  1  1
 20 21  2  0
 21 22  1  0
M  CHG  3   2  -1  26  -1  41  -1
M  END
>  <COMPND>  (187) 
    udp_gluA.pdb 

>  <AUTHOR>  (187) 
    GENERATED BY OPEN BABEL 3.1.1

>  <MASTER>  (187) 
        0    0    0    0    0    0    0    0   56    0   56    0

>  <minimizedAffinity>  (187) 
-7.57569

>  <CNNscore>  (187) 
0.5315035582

>  <CNNaffinity>  (187) 
4.3395042419

>  <CNN_VS>  (187) 
2.3064620495

>  <CNNaffinity_variance>  (187) 
0.5903092623

$$$$
188
     RDKit          3D

 43 45  0  0  0  0  0  0  0  0999 V2000
   19.5489   69.7521   -2.6667 P   0  0  2  0  0  0  0  0  0  0  0  0
   19.6288   69.3028   -1.1141 O   0  0  0  0  0  0  0  0  0  0  0  0
   20.4911   69.0298   -3.5846 O   0  0  0  0  0  0  0  0  0  0  0  0
   19.7139   71.3608   -2.6146 O   0  0  0  0  0  0  0  0  0  0  0  0
   18.5777   72.1473   -2.3065 C   0  0  0  0  0  0  0  0  0  0  0  0
   19.9728   72.5576   -0.3925 O   0  0  0  0  0  0  0  0  0  0  0  0
   19.3485   75.4630   -0.7931 O   0  0  0  0  0  0  0  0  0  0  0  0
   21.8393   75.2336   -1.8789 O   0  0  0  0  0  0  0  0  0  0  0  0
   19.5443   74.4381   -1.7676 C   0  0  1  0  0  0  0  0  0  0  0  0
   21.0136   74.0879   -1.8719 C   0  0  2  0  0  0  0  0  0  0  0  0
   18.9476   73.1489   -1.2200 C   0  0  1  0  0  0  0  0  0  0  0  0
   21.2205   73.2255   -0.6385 C   0  0  2  0  0  0  0  0  0  0  0  0
   19.7217   76.2967   -1.1206 H   0  0  0  0  0  0  0  0  0  0  0  0
   21.6703   75.7490   -2.6837 H   0  0  0  0  0  0  0  0  0  0  0  0
   22.3037   71.6399    1.4325 O   0  0  0  0  0  0  0  0  0  0  0  0
   25.1607   69.4792   -1.4680 O   0  0  0  0  0  0  0  0  0  0  0  0
   22.2484   72.2408   -0.8246 N   0  0  0  0  0  0  0  0  0  0  0  0
   23.7263   70.5660   -0.0139 N   0  0  0  0  0  0  0  0  0  0  0  0
   22.7231   71.4980    0.2823 C   0  0  0  0  0  0  0  0  0  0  0  0
   22.7741   72.0177   -2.0914 C   0  0  0  0  0  0  0  0  0  0  0  0
   23.7300   71.1256   -2.3582 C   0  0  0  0  0  0  0  0  0  0  0  0
   24.2812   70.3089   -1.2571 C   0  0  0  0  0  0  0  0  0  0  0  0
   24.0741   70.0383    0.7411 H   0  0  0  0  0  0  0  0  0  0  0  0
   17.9836   69.5586   -3.0205 O   0  0  0  0  0  0  0  0  0  0  0  0
   17.2570   69.0183   -4.3598 P   0  0  2  0  0  0  0  0  0  0  0  0
   15.8257   69.7740   -4.3345 O   0  0  0  0  0  0  0  0  0  0  0  0
   17.1650   67.5225   -4.4498 O   0  0  0  0  0  0  0  0  0  0  0  0
   18.0632   69.7137   -5.5717 O   0  0  0  0  0  0  0  0  0  0  0  0
   18.9890   71.8893   -5.7079 O   0  0  0  0  0  0  0  0  0  0  0  0
   17.9805   71.1568   -9.6467 O   0  0  0  0  0  0  0  0  0  0  0  0
   16.1658   70.3963   -7.4874 O   0  0  0  0  0  0  0  0  0  0  0  0
   20.7575   71.0087   -8.7997 O   0  0  0  0  0  0  0  0  0  0  0  0
   18.4028   70.8199   -8.3254 C   0  0  2  0  0  0  0  0  0  0  0  0
   17.3172   71.2162   -7.3244 C   0  0  2  0  0  0  0  0  0  0  0  0
   19.6984   71.5807   -8.0345 C   0  0  1  0  0  0  0  0  0  0  0  0
   17.8234   71.0839   -5.8874 C   0  0  1  0  0  0  0  0  0  0  0  0
   20.0689   71.5052   -6.5561 C   0  0  1  0  0  0  0  0  0  0  0  0
   17.1585   70.6849   -9.8539 H   0  0  0  0  0  0  0  0  0  0  0  0
   15.8394   70.4751   -8.3972 H   0  0  0  0  0  0  0  0  0  0  0  0
   20.5341   71.0504   -9.7427 H   0  0  0  0  0  0  0  0  0  0  0  0
   20.6583   73.4277   -5.3487 O   0  0  0  0  0  0  0  0  0  0  0  0
   22.2658   72.4961   -6.6706 O   0  0  0  0  0  0  0  0  0  0  0  0
   21.1288   72.5042   -6.2232 C   0  0  0  0  0  0  0  0  0  0  0  0
  1  4  1  0
  1 24  1  0
  1  2  1  1
  1  3  2  0
 25 28  1  0
 25 24  1  0
 25 26  1  1
 25 27  2  0
  6 11  1  0
  6 12  1  0
 29 36  1  0
 29 37  1  0
  9  7  1  1
  7 13  1  0
 10  8  1  1
  8 14  1  0
  4  5  1  0
 36 28  1  6
 33 30  1  6
 30 38  1  0
 34 31  1  1
 31 39  1  0
 35 32  1  6
 32 40  1  0
 41 43  1  0
 15 19  2  0
 42 43  2  0
 16 22  2  0
 12 17  1  6
 17 19  1  0
 17 20  1  0
 18 19  1  0
 18 22  1  0
 18 23  1  0
  9 10  1  0
  9 11  1  0
 10 12  1  0
 11  5  1  6
 33 34  1  0
 33 35  1  0
 34 36  1  0
 35 37  1  0
 37 43  1  6
 20 21  2  0
 21 22  1  0
M  CHG  3   2  -1  26  -1  41  -1
M  END
>  <COMPND>  (188) 
    udp_gluA.pdb 

>  <AUTHOR>  (188) 
    GENERATED BY OPEN BABEL 3.1.1

>  <MASTER>  (188) 
        0    0    0    0    0    0    0    0   56    0   56    0

>  <minimizedAffinity>  (188) 
-8.39243

>  <CNNscore>  (188) 
0.4921285808

>  <CNNaffinity>  (188) 
4.2985129356

>  <CNN_VS>  (188) 
2.1154210567

>  <CNNaffinity_variance>  (188) 
0.3165745139

$$$$
189
     RDKit          3D

 43 45  0  0  0  0  0  0  0  0999 V2000
   22.5736   74.5205   -5.5286 P   0  0  2  0  0  0  0  0  0  0  0  0
   21.5988   75.5857   -6.2593 O   0  0  0  0  0  0  0  0  0  0  0  0
   23.9881   74.9836   -5.3376 O   0  0  0  0  0  0  0  0  0  0  0  0
   22.3884   73.1665   -6.3948 O   0  0  0  0  0  0  0  0  0  0  0  0
   21.3454   72.2761   -6.0429 C   0  0  0  0  0  0  0  0  0  0  0  0
   19.9738   70.5742   -7.0427 O   0  0  0  0  0  0  0  0  0  0  0  0
   19.2791   72.6183   -9.1237 O   0  0  0  0  0  0  0  0  0  0  0  0
   17.0922   72.6588   -7.4953 O   0  0  0  0  0  0  0  0  0  0  0  0
   19.5090   72.7942   -7.7256 C   0  0  1  0  0  0  0  0  0  0  0  0
   18.3289   72.2758   -6.9312 C   0  0  2  0  0  0  0  0  0  0  0  0
   20.6185   71.8388   -7.3081 C   0  0  1  0  0  0  0  0  0  0  0  0
   18.5528   70.7740   -6.9776 C   0  0  2  0  0  0  0  0  0  0  0  0
   18.5739   73.2185   -9.4138 H   0  0  0  0  0  0  0  0  0  0  0  0
   16.9971   73.6232   -7.4415 H   0  0  0  0  0  0  0  0  0  0  0  0
   15.8907   69.8729   -6.6984 O   0  0  0  0  0  0  0  0  0  0  0  0
   16.6978   68.2291   -2.4687 O   0  0  0  0  0  0  0  0  0  0  0  0
   18.0404   70.1074   -5.8140 N   0  0  0  0  0  0  0  0  0  0  0  0
   16.2949   69.0559   -4.5916 N   0  0  0  0  0  0  0  0  0  0  0  0
   16.6874   69.6953   -5.7750 C   0  0  0  0  0  0  0  0  0  0  0  0
   18.8745   69.8666   -4.7290 C   0  0  0  0  0  0  0  0  0  0  0  0
   18.4861   69.2559   -3.6078 C   0  0  0  0  0  0  0  0  0  0  0  0
   17.0876   68.7946   -3.4858 C   0  0  0  0  0  0  0  0  0  0  0  0
   15.3568   68.7618   -4.5403 H   0  0  0  0  0  0  0  0  0  0  0  0
   21.7837   74.1863   -4.1585 O   0  0  0  0  0  0  0  0  0  0  0  0
   20.5942   74.9753   -3.3995 P   0  0  2  0  0  0  0  0  0  0  0  0
   19.2873   74.6133   -4.2834 O   0  0  0  0  0  0  0  0  0  0  0  0
   20.8398   76.4470   -3.2329 O   0  0  0  0  0  0  0  0  0  0  0  0
   20.3863   74.1705   -2.0169 O   0  0  0  0  0  0  0  0  0  0  0  0
   20.5748   71.8205   -2.2425 O   0  0  0  0  0  0  0  0  0  0  0  0
   19.1984   72.1849    1.6357 O   0  0  0  0  0  0  0  0  0  0  0  0
   18.0819   73.8440   -0.4939 O   0  0  0  0  0  0  0  0  0  0  0  0
   21.9901   71.5495    1.1317 O   0  0  0  0  0  0  0  0  0  0  0  0
   19.9153   72.5770    0.4651 C   0  0  2  0  0  0  0  0  0  0  0  0
   18.9418   72.7299   -0.7039 C   0  0  2  0  0  0  0  0  0  0  0  0
   20.9494   71.4915    0.1580 C   0  0  1  0  0  0  0  0  0  0  0  0
   19.6946   72.9230   -2.0210 C   0  0  1  0  0  0  0  0  0  0  0  0
   21.5644   71.6833   -1.2252 C   0  0  1  0  0  0  0  0  0  0  0  0
   18.5353   72.8598    1.8502 H   0  0  0  0  0  0  0  0  0  0  0  0
   17.6013   73.7282    0.3403 H   0  0  0  0  0  0  0  0  0  0  0  0
   21.6119   71.4289    2.0168 H   0  0  0  0  0  0  0  0  0  0  0  0
   21.9361   70.0754   -2.8920 O   0  0  0  0  0  0  0  0  0  0  0  0
   23.1506   69.8829   -0.9718 O   0  0  0  0  0  0  0  0  0  0  0  0
   22.3123   70.4607   -1.6474 C   0  0  0  0  0  0  0  0  0  0  0  0
  1  4  1  0
  1 24  1  0
  1  2  1  6
  1  3  2  0
 25 28  1  0
 25 24  1  0
 25 26  1  6
 25 27  2  0
  6 11  1  0
  6 12  1  0
 29 36  1  0
 29 37  1  0
  9  7  1  6
  7 13  1  0
 10  8  1  6
  8 14  1  0
  4  5  1  0
 36 28  1  1
 33 30  1  1
 30 38  1  0
 34 31  1  1
 31 39  1  0
 35 32  1  1
 32 40  1  0
 41 43  1  0
 15 19  2  0
 42 43  2  0
 16 22  2  0
 12 17  1  1
 17 19  1  0
 17 20  1  0
 18 19  1  0
 18 22  1  0
 18 23  1  0
  9 10  1  0
  9 11  1  0
 10 12  1  0
 11  5  1  1
 33 34  1  0
 33 35  1  0
 34 36  1  0
 35 37  1  0
 37 43  1  6
 20 21  2  0
 21 22  1  0
M  CHG  3   2  -1  26  -1  41  -1
M  END
>  <COMPND>  (189) 
    udp_gluA.pdb 

>  <AUTHOR>  (189) 
    GENERATED BY OPEN BABEL 3.1.1

>  <MASTER>  (189) 
        0    0    0    0    0    0    0    0   56    0   56    0

>  <minimizedAffinity>  (189) 
-6.93175

>  <CNNscore>  (189) 
0.4567793012

>  <CNNaffinity>  (189) 
4.0903425217

>  <CNN_VS>  (189) 
1.8683837652

>  <CNNaffinity_variance>  (189) 
0.6627662182

$$$$
190
     RDKit          3D

 43 45  0  0  0  0  0  0  0  0999 V2000
   19.2421   70.4310   -2.1462 P   0  0  2  0  0  0  0  0  0  0  0  0
   19.0621   71.8188   -1.3334 O   0  0  0  0  0  0  0  0  0  0  0  0
   19.4294   69.2141   -1.2883 O   0  0  0  0  0  0  0  0  0  0  0  0
   20.4371   70.7448   -3.1909 O   0  0  0  0  0  0  0  0  0  0  0  0
   20.9603   72.0593   -3.2448 C   0  0  0  0  0  0  0  0  0  0  0  0
   22.8234   73.0053   -2.0567 O   0  0  0  0  0  0  0  0  0  0  0  0
   24.3228   70.5179   -2.8023 O   0  0  0  0  0  0  0  0  0  0  0  0
   23.6165   70.0343   -0.2132 O   0  0  0  0  0  0  0  0  0  0  0  0
   22.9454   70.6746   -2.4609 C   0  0  1  0  0  0  0  0  0  0  0  0
   22.7969   70.8996   -0.9710 C   0  0  2  0  0  0  0  0  0  0  0  0
   22.4677   72.0023   -3.0328 C   0  0  1  0  0  0  0  0  0  0  0  0
   23.1990   72.3578   -0.8307 C   0  0  2  0  0  0  0  0  0  0  0  0
   24.6506   69.6763   -2.4475 H   0  0  0  0  0  0  0  0  0  0  0  0
   23.3200   69.1183   -0.3360 H   0  0  0  0  0  0  0  0  0  0  0  0
   23.6703   75.0262   -0.0345 O   0  0  0  0  0  0  0  0  0  0  0  0
   20.5880   74.7441    3.3806 O   0  0  0  0  0  0  0  0  0  0  0  0
   22.5335   73.0069    0.2632 N   0  0  0  0  0  0  0  0  0  0  0  0
   22.1354   74.8828    1.6663 N   0  0  0  0  0  0  0  0  0  0  0  0
   22.8434   74.3505    0.5807 C   0  0  0  0  0  0  0  0  0  0  0  0
   21.5853   72.3152    1.0070 C   0  0  0  0  0  0  0  0  0  0  0  0
   20.9186   72.8360    2.0390 C   0  0  0  0  0  0  0  0  0  0  0  0
   21.1839   74.2342    2.4366 C   0  0  0  0  0  0  0  0  0  0  0  0
   22.3356   75.8161    1.9076 H   0  0  0  0  0  0  0  0  0  0  0  0
   17.9325   70.3924   -3.0929 O   0  0  0  0  0  0  0  0  0  0  0  0
   17.4920   69.3568   -4.2535 P   0  0  2  0  0  0  0  0  0  0  0  0
   15.9161   69.6703   -4.4503 O   0  0  0  0  0  0  0  0  0  0  0  0
   17.8033   67.9203   -3.9477 O   0  0  0  0  0  0  0  0  0  0  0  0
   18.1900   69.9226   -5.5934 O   0  0  0  0  0  0  0  0  0  0  0  0
   19.0576   72.0914   -5.9841 O   0  0  0  0  0  0  0  0  0  0  0  0
   17.9132   70.9465   -9.7850 O   0  0  0  0  0  0  0  0  0  0  0  0
   16.2032   70.3712   -7.4873 O   0  0  0  0  0  0  0  0  0  0  0  0
   20.7240   70.9393   -9.0432 O   0  0  0  0  0  0  0  0  0  0  0  0
   18.3949   70.7526   -8.4553 C   0  0  2  0  0  0  0  0  0  0  0  0
   17.3403   71.2260   -7.4547 C   0  0  2  0  0  0  0  0  0  0  0  0
   19.6824   71.5643   -8.2956 C   0  0  1  0  0  0  0  0  0  0  0  0
   17.9055   71.2491   -6.0339 C   0  0  1  0  0  0  0  0  0  0  0  0
   20.1122   71.6453   -6.8337 C   0  0  1  0  0  0  0  0  0  0  0  0
   17.0952   70.4399   -9.9098 H   0  0  0  0  0  0  0  0  0  0  0  0
   15.8396   70.3517   -8.3861 H   0  0  0  0  0  0  0  0  0  0  0  0
   20.4629   70.8815   -9.9756 H   0  0  0  0  0  0  0  0  0  0  0  0
   20.5928   73.8932   -6.3677 O   0  0  0  0  0  0  0  0  0  0  0  0
   22.3646   72.5040   -6.7283 O   0  0  0  0  0  0  0  0  0  0  0  0
   21.1603   72.6935   -6.6462 C   0  0  0  0  0  0  0  0  0  0  0  0
  1  4  1  0
  1 24  1  0
  1  2  1  1
  1  3  2  0
 25 28  1  0
 25 24  1  0
 25 26  1  6
 25 27  2  0
  6 11  1  0
  6 12  1  0
 29 36  1  0
 29 37  1  0
  9  7  1  1
  7 13  1  0
 10  8  1  1
  8 14  1  0
  4  5  1  0
 36 28  1  6
 33 30  1  6
 30 38  1  0
 34 31  1  1
 31 39  1  0
 35 32  1  6
 32 40  1  0
 41 43  1  0
 15 19  2  0
 42 43  2  0
 16 22  2  0
 12 17  1  1
 17 19  1  0
 17 20  1  0
 18 19  1  0
 18 22  1  0
 18 23  1  0
  9 10  1  0
  9 11  1  0
 10 12  1  0
 11  5  1  1
 33 34  1  0
 33 35  1  0
 34 36  1  0
 35 37  1  0
 37 43  1  6
 20 21  2  0
 21 22  1  0
M  CHG  3   2  -1  26  -1  41  -1
M  END
>  <COMPND>  (190) 
    udp_gluA.pdb 

>  <AUTHOR>  (190) 
    GENERATED BY OPEN BABEL 3.1.1

>  <MASTER>  (190) 
        0    0    0    0    0    0    0    0   56    0   56    0

>  <minimizedAffinity>  (190) 
-8.47919

>  <CNNscore>  (190) 
0.4461001158

>  <CNNaffinity>  (190) 
4.2604532242

>  <CNN_VS>  (190) 
1.9005886316

>  <CNNaffinity_variance>  (190) 
0.1950068474

$$$$
191
     RDKit          3D

 43 45  0  0  0  0  0  0  0  0999 V2000
   20.2441   70.6635   -1.6731 P   0  0  2  0  0  0  0  0  0  0  0  0
   19.4766   69.2412   -1.7561 O   0  0  0  0  0  0  0  0  0  0  0  0
   19.4311   71.7900   -1.1058 O   0  0  0  0  0  0  0  0  0  0  0  0
   20.8070   70.8893   -3.1732 O   0  0  0  0  0  0  0  0  0  0  0  0
   20.9332   72.2144   -3.6556 C   0  0  0  0  0  0  0  0  0  0  0  0
   19.9929   71.1026   -5.5680 O   0  0  0  0  0  0  0  0  0  0  0  0
   20.6528   73.5906   -7.1060 O   0  0  0  0  0  0  0  0  0  0  0  0
   17.9812   73.8712   -6.6367 O   0  0  0  0  0  0  0  0  0  0  0  0
   20.2089   73.4539   -5.7559 C   0  0  1  0  0  0  0  0  0  0  0  0
   18.7360   73.1051   -5.7212 C   0  0  2  0  0  0  0  0  0  0  0  0
   20.8472   72.1990   -5.1764 C   0  0  1  0  0  0  0  0  0  0  0  0
   18.7536   71.6268   -6.0708 C   0  0  2  0  0  0  0  0  0  0  0  0
   20.2579   74.3859   -7.4976 H   0  0  0  0  0  0  0  0  0  0  0  0
   18.0007   74.8044   -6.3706 H   0  0  0  0  0  0  0  0  0  0  0  0
   16.9889   69.9332   -7.4828 O   0  0  0  0  0  0  0  0  0  0  0  0
   14.6129   68.9226   -3.6648 O   0  0  0  0  0  0  0  0  0  0  0  0
   17.6651   70.9088   -5.4704 N   0  0  0  0  0  0  0  0  0  0  0  0
   15.8065   69.4323   -5.5800 N   0  0  0  0  0  0  0  0  0  0  0  0
   16.8375   70.0845   -6.2691 C   0  0  0  0  0  0  0  0  0  0  0  0
   17.4273   71.0232   -4.1062 C   0  0  0  0  0  0  0  0  0  0  0  0
   16.4407   70.3952   -3.4635 C   0  0  0  0  0  0  0  0  0  0  0  0
   15.5300   69.5153   -4.2250 C   0  0  0  0  0  0  0  0  0  0  0  0
   15.2159   68.8544   -6.1153 H   0  0  0  0  0  0  0  0  0  0  0  0
   21.5788   70.3072   -0.8339 O   0  0  0  0  0  0  0  0  0  0  0  0
   22.7340   71.2588   -0.2227 P   0  0  2  0  0  0  0  0  0  0  0  0
   23.5134   71.7868   -1.5396 O   0  0  0  0  0  0  0  0  0  0  0  0
   23.6153   70.5854    0.7890 O   0  0  0  0  0  0  0  0  0  0  0  0
   21.9471   72.5536    0.3311 O   0  0  0  0  0  0  0  0  0  0  0  0
   22.7444   73.7148    2.2351 O   0  0  0  0  0  0  0  0  0  0  0  0
   18.8368   75.0382    2.0186 O   0  0  0  0  0  0  0  0  0  0  0  0
   19.4747   72.2242    1.5618 O   0  0  0  0  0  0  0  0  0  0  0  0
   21.0128   76.7698    1.1718 O   0  0  0  0  0  0  0  0  0  0  0  0
   20.0849   74.5716    1.5063 C   0  0  2  0  0  0  0  0  0  0  0  0
   20.3871   73.1863    2.0781 C   0  0  2  0  0  0  0  0  0  0  0  0
   21.1693   75.5677    1.9233 C   0  0  1  0  0  0  0  0  0  0  0  0
   21.8136   72.7530    1.7372 C   0  0  1  0  0  0  0  0  0  0  0  0
   22.5663   75.0102    1.6664 C   0  0  1  0  0  0  0  0  0  0  0  0
   18.1323   74.4208    1.7660 H   0  0  0  0  0  0  0  0  0  0  0  0
   18.5675   72.4929    1.7742 H   0  0  0  0  0  0  0  0  0  0  0  0
   20.1275   77.1349    1.3263 H   0  0  0  0  0  0  0  0  0  0  0  0
   23.8537   76.9708    1.6797 O   0  0  0  0  0  0  0  0  0  0  0  0
   24.1481   75.5215    3.4151 O   0  0  0  0  0  0  0  0  0  0  0  0
   23.6013   75.8292    2.3666 C   0  0  0  0  0  0  0  0  0  0  0  0
  1  4  1  0
  1 24  1  0
  1  2  1  6
  1  3  2  0
 25 28  1  0
 25 24  1  0
 25 26  1  6
 25 27  2  0
  6 11  1  0
  6 12  1  0
 29 36  1  0
 29 37  1  0
  9  7  1  6
  7 13  1  0
 10  8  1  6
  8 14  1  0
  4  5  1  0
 36 28  1  6
 33 30  1  1
 30 38  1  0
 34 31  1  6
 31 39  1  0
 35 32  1  6
 32 40  1  0
 41 43  1  0
 15 19  2  0
 42 43  2  0
 16 22  2  0
 12 17  1  1
 17 19  1  0
 17 20  1  0
 18 19  1  0
 18 22  1  0
 18 23  1  0
  9 10  1  0
  9 11  1  0
 10 12  1  0
 11  5  1  1
 33 34  1  0
 33 35  1  0
 34 36  1  0
 35 37  1  0
 37 43  1  1
 20 21  2  0
 21 22  1  0
M  CHG  3   2  -1  26  -1  41  -1
M  END
>  <COMPND>  (191) 
    udp_gluA.pdb 

>  <AUTHOR>  (191) 
    GENERATED BY OPEN BABEL 3.1.1

>  <MASTER>  (191) 
        0    0    0    0    0    0    0    0   56    0   56    0

>  <minimizedAffinity>  (191) 
-7.25349

>  <CNNscore>  (191) 
0.4164413810

>  <CNNaffinity>  (191) 
4.1772260666

>  <CNN_VS>  (191) 
1.7395697832

>  <CNNaffinity_variance>  (191) 
0.0505514964

$$$$
192
     RDKit          3D

 43 45  0  0  0  0  0  0  0  0999 V2000
   22.3040   72.6865   -2.7755 P   0  0  2  0  0  0  0  0  0  0  0  0
   23.5719   71.8220   -3.2892 O   0  0  0  0  0  0  0  0  0  0  0  0
   22.5868   74.1389   -2.5258 O   0  0  0  0  0  0  0  0  0  0  0  0
   21.7521   71.8497   -1.5054 O   0  0  0  0  0  0  0  0  0  0  0  0
   22.5259   71.8312   -0.3200 C   0  0  0  0  0  0  0  0  0  0  0  0
   22.2492   72.6320    1.9295 O   0  0  0  0  0  0  0  0  0  0  0  0
   19.3139   72.1609    1.5381 O   0  0  0  0  0  0  0  0  0  0  0  0
   19.5371   74.8557    1.1853 O   0  0  0  0  0  0  0  0  0  0  0  0
   20.2886   72.6184    0.6004 C   0  0  1  0  0  0  0  0  0  0  0  0
   20.6638   74.0556    0.8935 C   0  0  2  0  0  0  0  0  0  0  0  0
   21.5926   71.8848    0.8827 C   0  0  1  0  0  0  0  0  0  0  0  0
   21.5957   73.9019    2.0834 C   0  0  2  0  0  0  0  0  0  0  0  0
   18.4718   72.6157    1.3775 H   0  0  0  0  0  0  0  0  0  0  0  0
   18.9755   74.9232    0.3966 H   0  0  0  0  0  0  0  0  0  0  0  0
   22.8912   74.7466    4.4466 O   0  0  0  0  0  0  0  0  0  0  0  0
   25.3962   77.8763    2.1720 O   0  0  0  0  0  0  0  0  0  0  0  0
   22.5905   74.9354    2.1374 N   0  0  0  0  0  0  0  0  0  0  0  0
   24.1369   76.3052    3.3116 N   0  0  0  0  0  0  0  0  0  0  0  0
   23.1797   75.2841    3.3757 C   0  0  0  0  0  0  0  0  0  0  0  0
   22.9742   75.5903    0.9734 C   0  0  0  0  0  0  0  0  0  0  0  0
   23.8881   76.5617    0.9281 C   0  0  0  0  0  0  0  0  0  0  0  0
   24.5510   76.9864    2.1785 C   0  0  0  0  0  0  0  0  0  0  0  0
   24.5594   76.5667    4.1615 H   0  0  0  0  0  0  0  0  0  0  0  0
   21.1880   72.4032   -3.9100 O   0  0  0  0  0  0  0  0  0  0  0  0
   20.8867   73.1494   -5.3122 P   0  0  2  0  0  0  0  0  0  0  0  0
   22.0807   72.6280   -6.2727 O   0  0  0  0  0  0  0  0  0  0  0  0
   20.7866   74.6436   -5.2055 O   0  0  0  0  0  0  0  0  0  0  0  0
   19.5610   72.4286   -5.8828 O   0  0  0  0  0  0  0  0  0  0  0  0
   19.6238   70.1261   -5.3318 O   0  0  0  0  0  0  0  0  0  0  0  0
   16.1228   70.3737   -7.5112 O   0  0  0  0  0  0  0  0  0  0  0  0
   18.5147   71.8063   -8.3836 O   0  0  0  0  0  0  0  0  0  0  0  0
   16.0254   70.1375   -4.6154 O   0  0  0  0  0  0  0  0  0  0  0  0
   17.1451   70.8392   -6.6300 C   0  0  2  0  0  0  0  0  0  0  0  0
   18.4913   70.8238   -7.3546 C   0  0  2  0  0  0  0  0  0  0  0  0
   17.1832   69.9081   -5.4162 C   0  0  1  0  0  0  0  0  0  0  0  0
   19.6395   71.0945   -6.3813 C   0  0  1  0  0  0  0  0  0  0  0  0
   18.4236   70.1560   -4.5627 C   0  0  1  0  0  0  0  0  0  0  0  0
   16.0800   70.9503   -8.2903 H   0  0  0  0  0  0  0  0  0  0  0  0
   17.7886   71.6408   -9.0046 H   0  0  0  0  0  0  0  0  0  0  0  0
   15.2288   69.9832   -5.1469 H   0  0  0  0  0  0  0  0  0  0  0  0
   19.7449   68.3416   -3.8818 O   0  0  0  0  0  0  0  0  0  0  0  0
   17.8877   68.7995   -2.6407 O   0  0  0  0  0  0  0  0  0  0  0  0
   18.6246   69.0453   -3.5838 C   0  0  0  0  0  0  0  0  0  0  0  0
  1  4  1  0
  1 24  1  0
  1  2  1  6
  1  3  2  0
 25 28  1  0
 25 24  1  0
 25 26  1  6
 25 27  2  0
  6 11  1  0
  6 12  1  0
 29 36  1  0
 29 37  1  0
  9  7  1  1
  7 13  1  0
 10  8  1  1
  8 14  1  0
  4  5  1  0
 36 28  1  1
 33 30  1  6
 30 38  1  0
 34 31  1  6
 31 39  1  0
 35 32  1  1
 32 40  1  0
 41 43  1  0
 15 19  2  0
 42 43  2  0
 16 22  2  0
 12 17  1  6
 17 19  1  0
 17 20  1  0
 18 19  1  0
 18 22  1  0
 18 23  1  0
  9 10  1  0
  9 11  1  0
 10 12  1  0
 11  5  1  6
 33 34  1  0
 33 35  1  0
 34 36  1  0
 35 37  1  0
 37 43  1  1
 20 21  2  0
 21 22  1  0
M  CHG  3   2  -1  26  -1  41  -1
M  END
>  <COMPND>  (192) 
    udp_gluA.pdb 

>  <AUTHOR>  (192) 
    GENERATED BY OPEN BABEL 3.1.1

>  <MASTER>  (192) 
        0    0    0    0    0    0    0    0   56    0   56    0

>  <minimizedAffinity>  (192) 
-7.25433

>  <CNNscore>  (192) 
0.4108967781

>  <CNNaffinity>  (192) 
4.0461568832

>  <CNN_VS>  (192) 
1.6625528336

>  <CNNaffinity_variance>  (192) 
0.1180462688

$$$$
193
     RDKit          3D

 43 45  0  0  0  0  0  0  0  0999 V2000
   20.4582   75.0936   -3.1958 P   0  0  2  0  0  0  0  0  0  0  0  0
   21.9948   74.7225   -2.8491 O   0  0  0  0  0  0  0  0  0  0  0  0
   20.1773   76.5608   -3.3377 O   0  0  0  0  0  0  0  0  0  0  0  0
   19.6058   74.3219   -2.0574 O   0  0  0  0  0  0  0  0  0  0  0  0
   19.2394   75.0326   -0.8890 C   0  0  0  0  0  0  0  0  0  0  0  0
   19.0520   72.7154   -0.2783 O   0  0  0  0  0  0  0  0  0  0  0  0
   18.3734   73.6883    2.4756 O   0  0  0  0  0  0  0  0  0  0  0  0
   20.9949   72.9794    2.7233 O   0  0  0  0  0  0  0  0  0  0  0  0
   19.2897   74.2323    1.5254 C   0  0  1  0  0  0  0  0  0  0  0  0
   20.5350   73.3747    1.4478 C   0  0  2  0  0  0  0  0  0  0  0  0
   18.6905   74.0502    0.1376 C   0  0  1  0  0  0  0  0  0  0  0  0
   20.0583   72.2015    0.6087 C   0  0  2  0  0  0  0  0  0  0  0  0
   18.7346   73.7931    3.3702 H   0  0  0  0  0  0  0  0  0  0  0  0
   21.2872   73.7615    3.2182 H   0  0  0  0  0  0  0  0  0  0  0  0
   19.9226   69.6609   -0.6174 O   0  0  0  0  0  0  0  0  0  0  0  0
   24.1712   70.0712   -2.3567 O   0  0  0  0  0  0  0  0  0  0  0  0
   21.1145   71.6199   -0.1704 N   0  0  0  0  0  0  0  0  0  0  0  0
   22.0391   69.8672   -1.4817 N   0  0  0  0  0  0  0  0  0  0  0  0
   20.9452   70.3371   -0.7430 C   0  0  0  0  0  0  0  0  0  0  0  0
   22.3004   72.3184   -0.3620 C   0  0  0  0  0  0  0  0  0  0  0  0
   23.3343   71.8575   -1.0688 C   0  0  0  0  0  0  0  0  0  0  0  0
   23.2390   70.5247   -1.6997 C   0  0  0  0  0  0  0  0  0  0  0  0
   21.9456   68.9754   -1.8883 H   0  0  0  0  0  0  0  0  0  0  0  0
   20.1648   74.2203   -4.5240 O   0  0  0  0  0  0  0  0  0  0  0  0
   20.8890   72.8972   -5.1058 P   0  0  2  0  0  0  0  0  0  0  0  0
   20.9178   71.9003   -3.8308 O   0  0  0  0  0  0  0  0  0  0  0  0
   22.2341   73.1520   -5.7221 O   0  0  0  0  0  0  0  0  0  0  0  0
   19.8061   72.2451   -6.1081 O   0  0  0  0  0  0  0  0  0  0  0  0
   18.9766   70.0526   -5.7704 O   0  0  0  0  0  0  0  0  0  0  0  0
   18.0885   70.6829   -9.7556 O   0  0  0  0  0  0  0  0  0  0  0  0
   20.6586   71.5346   -8.6585 O   0  0  0  0  0  0  0  0  0  0  0  0
   15.9850   70.8141   -7.7534 O   0  0  0  0  0  0  0  0  0  0  0  0
   18.2958   71.0526   -8.3924 C   0  0  2  0  0  0  0  0  0  0  0  0
   19.7255   70.7026   -7.9790 C   0  0  2  0  0  0  0  0  0  0  0  0
   17.2899   70.2812   -7.5350 C   0  0  1  0  0  0  0  0  0  0  0  0
   19.9153   70.8698   -6.4707 C   0  0  1  0  0  0  0  0  0  0  0  0
   17.6210   70.3950   -6.0498 C   0  0  1  0  0  0  0  0  0  0  0  0
   18.7169   71.1609  -10.3196 H   0  0  0  0  0  0  0  0  0  0  0  0
   20.5436   71.4338   -9.6161 H   0  0  0  0  0  0  0  0  0  0  0  0
   15.7620   70.7479   -8.6951 H   0  0  0  0  0  0  0  0  0  0  0  0
   17.6911   68.5696   -4.5785 O   0  0  0  0  0  0  0  0  0  0  0  0
   15.6320   69.3136   -5.2156 O   0  0  0  0  0  0  0  0  0  0  0  0
   16.8508   69.3904   -5.2561 C   0  0  0  0  0  0  0  0  0  0  0  0
  1  4  1  0
  1 24  1  0
  1  2  1  1
  1  3  2  0
 25 28  1  0
 25 24  1  0
 25 26  1  1
 25 27  2  0
  6 11  1  0
  6 12  1  0
 29 36  1  0
 29 37  1  0
  9  7  1  1
  7 13  1  0
 10  8  1  1
  8 14  1  0
  4  5  1  0
 36 28  1  6
 33 30  1  6
 30 38  1  0
 34 31  1  6
 31 39  1  0
 35 32  1  1
 32 40  1  0
 41 43  1  0
 15 19  2  0
 42 43  2  0
 16 22  2  0
 12 17  1  6
 17 19  1  0
 17 20  1  0
 18 19  1  0
 18 22  1  0
 18 23  1  0
  9 10  1  0
  9 11  1  0
 10 12  1  0
 11  5  1  6
 33 34  1  0
 33 35  1  0
 34 36  1  0
 35 37  1  0
 37 43  1  1
 20 21  2  0
 21 22  1  0
M  CHG  3   2  -1  26  -1  41  -1
M  END
>  <COMPND>  (193) 
    udp_gluA.pdb 

>  <AUTHOR>  (193) 
    GENERATED BY OPEN BABEL 3.1.1

>  <MASTER>  (193) 
        0    0    0    0    0    0    0    0   56    0   56    0

>  <minimizedAffinity>  (193) 
-7.92116

>  <CNNscore>  (193) 
0.3572981358

>  <CNNaffinity>  (193) 
4.0657224655

>  <CNN_VS>  (193) 
1.4526751041

>  <CNNaffinity_variance>  (193) 
0.5979618430

$$$$
194
     RDKit          3D

 43 45  0  0  0  0  0  0  0  0999 V2000
   20.7863   75.2493   -5.5315 P   0  0  2  0  0  0  0  0  0  0  0  0
   19.7218   75.3252   -4.3149 O   0  0  0  0  0  0  0  0  0  0  0  0
   21.7334   76.4099   -5.6180 O   0  0  0  0  0  0  0  0  0  0  0  0
   19.8659   74.9946   -6.8377 O   0  0  0  0  0  0  0  0  0  0  0  0
   18.8292   74.0338   -6.7574 C   0  0  0  0  0  0  0  0  0  0  0  0
   19.3991   71.7382   -7.1854 O   0  0  0  0  0  0  0  0  0  0  0  0
   18.2021   72.1422   -9.9049 O   0  0  0  0  0  0  0  0  0  0  0  0
   16.2178   70.8330   -8.5690 O   0  0  0  0  0  0  0  0  0  0  0  0
   17.7935   72.6831   -8.6483 C   0  0  1  0  0  0  0  0  0  0  0  0
   17.1177   71.6163   -7.8132 C   0  0  2  0  0  0  0  0  0  0  0  0
   19.0460   72.9788   -7.8346 C   0  0  1  0  0  0  0  0  0  0  0  0
   18.3042   70.8159   -7.3038 C   0  0  2  0  0  0  0  0  0  0  0  0
   17.4187   71.9452  -10.4426 H   0  0  0  0  0  0  0  0  0  0  0  0
   15.4805   71.3877   -8.8700 H   0  0  0  0  0  0  0  0  0  0  0  0
   20.3213   70.0175   -5.4953 O   0  0  0  0  0  0  0  0  0  0  0  0
   17.2282   68.5447   -2.4118 O   0  0  0  0  0  0  0  0  0  0  0  0
   18.0541   70.2211   -6.0214 N   0  0  0  0  0  0  0  0  0  0  0  0
   18.7788   69.2838   -3.9617 N   0  0  0  0  0  0  0  0  0  0  0  0
   19.1385   69.8561   -5.1890 C   0  0  0  0  0  0  0  0  0  0  0  0
   16.7476   70.0065   -5.5994 C   0  0  0  0  0  0  0  0  0  0  0  0
   16.4205   69.4601   -4.4267 C   0  0  0  0  0  0  0  0  0  0  0  0
   17.4943   69.0497   -3.4983 C   0  0  0  0  0  0  0  0  0  0  0  0
   19.5168   69.0196   -3.3659 H   0  0  0  0  0  0  0  0  0  0  0  0
   21.4971   73.8157   -5.3028 O   0  0  0  0  0  0  0  0  0  0  0  0
   22.5948   73.3364   -4.2169 P   0  0  2  0  0  0  0  0  0  0  0  0
   22.7523   74.6289   -3.2551 O   0  0  0  0  0  0  0  0  0  0  0  0
   23.8829   72.8511   -4.8163 O   0  0  0  0  0  0  0  0  0  0  0  0
   21.8252   72.2459   -3.3108 O   0  0  0  0  0  0  0  0  0  0  0  0
   22.5699   72.4181   -1.0692 O   0  0  0  0  0  0  0  0  0  0  0  0
   19.9414   69.2390   -0.8400 O   0  0  0  0  0  0  0  0  0  0  0  0
   21.7891   69.4735   -3.0907 O   0  0  0  0  0  0  0  0  0  0  0  0
   19.1630   71.8516    0.1696 O   0  0  0  0  0  0  0  0  0  0  0  0
   20.4478   70.4781   -1.3363 C   0  0  2  0  0  0  0  0  0  0  0  0
   21.8489   70.2653   -1.9100 C   0  0  2  0  0  0  0  0  0  0  0  0
   20.4943   71.4702   -0.1721 C   0  0  1  0  0  0  0  0  0  0  0  0
   22.5137   71.6024   -2.2401 C   0  0  1  0  0  0  0  0  0  0  0  0
   21.2817   72.7244   -0.5401 C   0  0  1  0  0  0  0  0  0  0  0  0
   19.9029   68.5926   -1.5625 H   0  0  0  0  0  0  0  0  0  0  0  0
   21.3680   68.6236   -2.8886 H   0  0  0  0  0  0  0  0  0  0  0  0
   18.6510   71.0623    0.4057 H   0  0  0  0  0  0  0  0  0  0  0  0
   20.6828   74.5068    0.8620 O   0  0  0  0  0  0  0  0  0  0  0  0
   22.5565   73.3315    1.4163 O   0  0  0  0  0  0  0  0  0  0  0  0
   21.6019   73.5266    0.6790 C   0  0  0  0  0  0  0  0  0  0  0  0
  1  4  1  0
  1 24  1  0
  1  2  1  1
  1  3  2  0
 25 28  1  0
 25 24  1  0
 25 26  1  1
 25 27  2  0
  6 11  1  0
  6 12  1  0
 29 36  1  0
 29 37  1  0
  9  7  1  6
  7 13  1  0
 10  8  1  6
  8 14  1  0
  4  5  1  0
 36 28  1  6
 33 30  1  1
 30 38  1  0
 34 31  1  6
 31 39  1  0
 35 32  1  6
 32 40  1  0
 41 43  1  0
 15 19  2  0
 42 43  2  0
 16 22  2  0
 12 17  1  1
 17 19  1  0
 17 20  1  0
 18 19  1  0
 18 22  1  0
 18 23  1  0
  9 10  1  0
  9 11  1  0
 10 12  1  0
 11  5  1  1
 33 34  1  0
 33 35  1  0
 34 36  1  0
 35 37  1  0
 37 43  1  1
 20 21  2  0
 21 22  1  0
M  CHG  3   2  -1  26  -1  41  -1
M  END
>  <COMPND>  (194) 
    udp_gluA.pdb 

>  <AUTHOR>  (194) 
    GENERATED BY OPEN BABEL 3.1.1

>  <MASTER>  (194) 
        0    0    0    0    0    0    0    0   56    0   56    0

>  <minimizedAffinity>  (194) 
-7.88515

>  <CNNscore>  (194) 
0.3475076854

>  <CNNaffinity>  (194) 
4.1244635582

>  <CNN_VS>  (194) 
1.4332827330

>  <CNNaffinity_variance>  (194) 
0.6006543040

$$$$
195
     RDKit          3D

 43 45  0  0  0  0  0  0  0  0999 V2000
   21.7217   76.0095   -2.2915 P   0  0  2  0  0  0  0  0  0  0  0  0
   23.2494   75.9226   -2.8183 O   0  0  0  0  0  0  0  0  0  0  0  0
   21.1681   77.3997   -2.1797 O   0  0  0  0  0  0  0  0  0  0  0  0
   21.7329   75.1456   -0.9234 O   0  0  0  0  0  0  0  0  0  0  0  0
   21.3570   75.7845    0.2828 C   0  0  0  0  0  0  0  0  0  0  0  0
   20.1581   73.7015    0.2445 O   0  0  0  0  0  0  0  0  0  0  0  0
   19.7848   74.0759    3.1961 O   0  0  0  0  0  0  0  0  0  0  0  0
   21.8297   72.2758    3.0777 O   0  0  0  0  0  0  0  0  0  0  0  0
   20.9048   74.4125    2.3770 C   0  0  1  0  0  0  0  0  0  0  0  0
   21.6661   73.1622    1.9905 C   0  0  2  0  0  0  0  0  0  0  0  0
   20.3760   74.8921    1.0321 C   0  0  1  0  0  0  0  0  0  0  0  0
   20.7887   72.5854    0.8926 C   0  0  2  0  0  0  0  0  0  0  0  0
   20.0977   73.7667    4.0610 H   0  0  0  0  0  0  0  0  0  0  0  0
   22.3958   72.6888    3.7492 H   0  0  0  0  0  0  0  0  0  0  0  0
   19.7111   70.5657   -0.7614 O   0  0  0  0  0  0  0  0  0  0  0  0
   23.7750   69.8141   -2.8019 O   0  0  0  0  0  0  0  0  0  0  0  0
   21.5427   71.8458   -0.0797 N   0  0  0  0  0  0  0  0  0  0  0  0
   21.7364   70.1926   -1.7754 N   0  0  0  0  0  0  0  0  0  0  0  0
   20.9058   70.8517   -0.8595 C   0  0  0  0  0  0  0  0  0  0  0  0
   22.8960   72.1087   -0.2542 C   0  0  0  0  0  0  0  0  0  0  0  0
   23.6746   71.4722   -1.1314 C   0  0  0  0  0  0  0  0  0  0  0  0
   23.0872   70.4185   -1.9846 C   0  0  0  0  0  0  0  0  0  0  0  0
   21.3159   69.4948   -2.3282 H   0  0  0  0  0  0  0  0  0  0  0  0
   20.9276   75.0492   -3.3211 O   0  0  0  0  0  0  0  0  0  0  0  0
   19.3629   74.9874   -3.7230 P   0  0  2  0  0  0  0  0  0  0  0  0
   19.2318   76.1176   -4.8744 O   0  0  0  0  0  0  0  0  0  0  0  0
   18.4225   75.1702   -2.5670 O   0  0  0  0  0  0  0  0  0  0  0  0
   19.1965   73.5869   -4.5063 O   0  0  0  0  0  0  0  0  0  0  0  0
   20.1946   71.4480   -4.3114 O   0  0  0  0  0  0  0  0  0  0  0  0
   19.9396   71.8862   -8.4115 O   0  0  0  0  0  0  0  0  0  0  0  0
   20.7751   74.1258   -6.7320 O   0  0  0  0  0  0  0  0  0  0  0  0
   18.0775   70.1476   -7.0112 O   0  0  0  0  0  0  0  0  0  0  0  0
   19.5353   72.0654   -7.0541 C   0  0  2  0  0  0  0  0  0  0  0  0
   20.6421   72.7828   -6.2809 C   0  0  2  0  0  0  0  0  0  0  0  0
   19.2754   70.6828   -6.4517 C   0  0  1  0  0  0  0  0  0  0  0  0
   20.3462   72.7883   -4.7805 C   0  0  1  0  0  0  0  0  0  0  0  0
   19.1152   70.7568   -4.9360 C   0  0  1  0  0  0  0  0  0  0  0  0
   20.1104   72.7518   -8.8151 H   0  0  0  0  0  0  0  0  0  0  0  0
   20.9628   74.1298   -7.6834 H   0  0  0  0  0  0  0  0  0  0  0  0
   18.1663   70.0954   -7.9757 H   0  0  0  0  0  0  0  0  0  0  0  0
   17.9906   68.7699   -4.3981 O   0  0  0  0  0  0  0  0  0  0  0  0
   20.1959   68.9023   -3.8339 O   0  0  0  0  0  0  0  0  0  0  0  0
   19.1922   69.3945   -4.3273 C   0  0  0  0  0  0  0  0  0  0  0  0
  1  4  1  0
  1 24  1  0
  1  2  1  6
  1  3  2  0
 25 28  1  0
 25 24  1  0
 25 26  1  6
 25 27  2  0
  6 11  1  0
  6 12  1  0
 29 36  1  0
 29 37  1  0
  9  7  1  1
  7 13  1  0
 10  8  1  1
  8 14  1  0
  4  5  1  0
 36 28  1  6
 33 30  1  6
 30 38  1  0
 34 31  1  6
 31 39  1  0
 35 32  1  6
 32 40  1  0
 41 43  1  0
 15 19  2  0
 42 43  2  0
 16 22  2  0
 12 17  1  6
 17 19  1  0
 17 20  1  0
 18 19  1  0
 18 22  1  0
 18 23  1  0
  9 10  1  0
  9 11  1  0
 10 12  1  0
 11  5  1  6
 33 34  1  0
 33 35  1  0
 34 36  1  0
 35 37  1  0
 37 43  1  1
 20 21  2  0
 21 22  1  0
M  CHG  3   2  -1  26  -1  41  -1
M  END
>  <COMPND>  (195) 
    udp_gluA.pdb 

>  <AUTHOR>  (195) 
    GENERATED BY OPEN BABEL 3.1.1

>  <MASTER>  (195) 
        0    0    0    0    0    0    0    0   56    0   56    0

>  <minimizedAffinity>  (195) 
-6.85520

>  <CNNscore>  (195) 
0.3472449183

>  <CNNaffinity>  (195) 
3.8361480236

>  <CNN_VS>  (195) 
1.3320828676

>  <CNNaffinity_variance>  (195) 
0.8711584210

$$$$
196
     RDKit          3D

 43 45  0  0  0  0  0  0  0  0999 V2000
   22.8628   72.9042   -4.1311 P   0  0  2  0  0  0  0  0  0  0  0  0
   24.1843   73.3822   -4.9335 O   0  0  0  0  0  0  0  0  0  0  0  0
   22.3893   73.8521   -3.0685 O   0  0  0  0  0  0  0  0  0  0  0  0
   23.2327   71.4119   -3.6272 O   0  0  0  0  0  0  0  0  0  0  0  0
   23.2561   71.1546   -2.2351 C   0  0  0  0  0  0  0  0  0  0  0  0
   21.8145   70.3908   -0.4699 O   0  0  0  0  0  0  0  0  0  0  0  0
   19.9708   69.4447   -2.6373 O   0  0  0  0  0  0  0  0  0  0  0  0
   18.8061   71.7782   -1.8407 O   0  0  0  0  0  0  0  0  0  0  0  0
   20.7981   70.6077   -2.5985 C   0  0  1  0  0  0  0  0  0  0  0  0
   20.2017   71.6445   -1.6702 C   0  0  2  0  0  0  0  0  0  0  0  0
   22.0895   70.2418   -1.8797 C   0  0  1  0  0  0  0  0  0  0  0  0
   20.5739   71.0954   -0.3035 C   0  0  2  0  0  0  0  0  0  0  0  0
   19.1395   69.6539   -3.0920 H   0  0  0  0  0  0  0  0  0  0  0  0
   18.6209   72.1312   -2.7256 H   0  0  0  0  0  0  0  0  0  0  0  0
   18.4640   72.3685    1.0765 O   0  0  0  0  0  0  0  0  0  0  0  0
   21.3789   75.0598    3.4225 O   0  0  0  0  0  0  0  0  0  0  0  0
   20.7531   72.1321    0.6733 N   0  0  0  0  0  0  0  0  0  0  0  0
   19.9178   73.7084    2.2429 N   0  0  0  0  0  0  0  0  0  0  0  0
   19.6265   72.7058    1.3086 C   0  0  0  0  0  0  0  0  0  0  0  0
   22.0326   72.5689    0.9943 C   0  0  0  0  0  0  0  0  0  0  0  0
   22.2945   73.5255    1.8871 C   0  0  0  0  0  0  0  0  0  0  0  0
   21.1731   74.1770    2.5951 C   0  0  0  0  0  0  0  0  0  0  0  0
   19.1493   74.1242    2.6967 H   0  0  0  0  0  0  0  0  0  0  0  0
   21.7968   72.6340   -5.3158 O   0  0  0  0  0  0  0  0  0  0  0  0
   20.3891   73.3502   -5.6608 P   0  0  2  0  0  0  0  0  0  0  0  0
   20.8405   74.7900   -6.2467 O   0  0  0  0  0  0  0  0  0  0  0  0
   19.4361   73.4248   -4.5031 O   0  0  0  0  0  0  0  0  0  0  0  0
   19.8249   72.5480   -6.9417 O   0  0  0  0  0  0  0  0  0  0  0  0
   19.0303   70.5136   -6.0259 O   0  0  0  0  0  0  0  0  0  0  0  0
   17.7993   70.2032   -9.9573 O   0  0  0  0  0  0  0  0  0  0  0  0
   20.4539   71.2397   -9.3142 O   0  0  0  0  0  0  0  0  0  0  0  0
   15.8772   70.8437   -7.8727 O   0  0  0  0  0  0  0  0  0  0  0  0
   18.1236   70.8799   -8.7428 C   0  0  2  0  0  0  0  0  0  0  0  0
   19.5842   70.6097   -8.3807 C   0  0  2  0  0  0  0  0  0  0  0  0
   17.1967   70.3521   -7.6454 C   0  0  1  0  0  0  0  0  0  0  0  0
   19.9038   71.1242   -6.9764 C   0  0  1  0  0  0  0  0  0  0  0  0
   17.6552   70.8066   -6.2628 C   0  0  1  0  0  0  0  0  0  0  0  0
   18.3759   70.5223  -10.6694 H   0  0  0  0  0  0  0  0  0  0  0  0
   20.2564   70.9180  -10.2074 H   0  0  0  0  0  0  0  0  0  0  0  0
   15.5735   70.5615   -8.7496 H   0  0  0  0  0  0  0  0  0  0  0  0
   17.5253   70.2700   -3.9832 O   0  0  0  0  0  0  0  0  0  0  0  0
   16.0055   69.2885   -5.3710 O   0  0  0  0  0  0  0  0  0  0  0  0
   16.9579   70.0327   -5.1917 C   0  0  0  0  0  0  0  0  0  0  0  0
  1  4  1  0
  1 24  1  0
  1  2  1  6
  1  3  2  0
 25 28  1  0
 25 24  1  0
 25 26  1  6
 25 27  2  0
  6 11  1  0
  6 12  1  0
 29 36  1  0
 29 37  1  0
  9  7  1  1
  7 13  1  0
 10  8  1  1
  8 14  1  0
  4  5  1  0
 36 28  1  6
 33 30  1  6
 30 38  1  0
 34 31  1  6
 31 39  1  0
 35 32  1  6
 32 40  1  0
 41 43  1  0
 15 19  2  0
 42 43  2  0
 16 22  2  0
 12 17  1  1
 17 19  1  0
 17 20  1  0
 18 19  1  0
 18 22  1  0
 18 23  1  0
  9 10  1  0
  9 11  1  0
 10 12  1  0
 11  5  1  6
 33 34  1  0
 33 35  1  0
 34 36  1  0
 35 37  1  0
 37 43  1  1
 20 21  2  0
 21 22  1  0
M  CHG  3   2  -1  26  -1  41  -1
M  END
>  <COMPND>  (196) 
    udp_gluA.pdb 

>  <AUTHOR>  (196) 
    GENERATED BY OPEN BABEL 3.1.1

>  <MASTER>  (196) 
        0    0    0    0    0    0    0    0   56    0   56    0

>  <minimizedAffinity>  (196) 
-8.22501

>  <CNNscore>  (196) 
0.3320575655

>  <CNNaffinity>  (196) 
4.0268707275

>  <CNN_VS>  (196) 
1.3371528387

>  <CNNaffinity_variance>  (196) 
0.3347940743

$$$$
197
     RDKit          3D

 43 45  0  0  0  0  0  0  0  0999 V2000
   18.7940   73.4522   -3.0539 P   0  0  2  0  0  0  0  0  0  0  0  0
   18.0437   74.5670   -3.9557 O   0  0  0  0  0  0  0  0  0  0  0  0
   18.0118   72.1925   -2.8234 O   0  0  0  0  0  0  0  0  0  0  0  0
   19.2326   74.2604   -1.7226 O   0  0  0  0  0  0  0  0  0  0  0  0
   20.5892   74.2148   -1.3202 C   0  0  0  0  0  0  0  0  0  0  0  0
   22.0444   73.3257    0.3739 O   0  0  0  0  0  0  0  0  0  0  0  0
   19.6103   71.9813    1.4961 O   0  0  0  0  0  0  0  0  0  0  0  0
   19.9107   74.1374    3.1385 O   0  0  0  0  0  0  0  0  0  0  0  0
   19.7306   73.2623    0.8771 C   0  0  1  0  0  0  0  0  0  0  0  0
   20.4034   74.2384    1.8188 C   0  0  2  0  0  0  0  0  0  0  0  0
   20.7523   73.1472   -0.2459 C   0  0  1  0  0  0  0  0  0  0  0  0
   21.8624   73.8304    1.7064 C   0  0  2  0  0  0  0  0  0  0  0  0
   18.9626   72.0298    2.2171 H   0  0  0  0  0  0  0  0  0  0  0  0
   18.9788   74.4081    3.1573 H   0  0  0  0  0  0  0  0  0  0  0  0
   22.8803   74.6056    4.2242 O   0  0  0  0  0  0  0  0  0  0  0  0
   25.2892   78.0781    2.3852 O   0  0  0  0  0  0  0  0  0  0  0  0
   22.7574   74.9334    1.9143 N   0  0  0  0  0  0  0  0  0  0  0  0
   24.0783   76.3350    3.3060 N   0  0  0  0  0  0  0  0  0  0  0  0
   23.2098   75.2390    3.2197 C   0  0  0  0  0  0  0  0  0  0  0  0
   23.1791   75.6976    0.8331 C   0  0  0  0  0  0  0  0  0  0  0  0
   24.0074   76.7393    0.9311 C   0  0  0  0  0  0  0  0  0  0  0  0
   24.5254   77.1257    2.2599 C   0  0  0  0  0  0  0  0  0  0  0  0
   24.4050   76.5683    4.2050 H   0  0  0  0  0  0  0  0  0  0  0  0
   20.1963   73.2417   -3.8298 O   0  0  0  0  0  0  0  0  0  0  0  0
   20.5764   73.3891   -5.3942 P   0  0  2  0  0  0  0  0  0  0  0  0
   21.9545   72.5494   -5.5208 O   0  0  0  0  0  0  0  0  0  0  0  0
   20.6709   74.8086   -5.8738 O   0  0  0  0  0  0  0  0  0  0  0  0
   19.4809   72.4926   -6.1678 O   0  0  0  0  0  0  0  0  0  0  0  0
   18.8439   70.3112   -5.5007 O   0  0  0  0  0  0  0  0  0  0  0  0
   17.8527   70.2869   -9.5113 O   0  0  0  0  0  0  0  0  0  0  0  0
   20.3561   71.4945   -8.6120 O   0  0  0  0  0  0  0  0  0  0  0  0
   15.7725   70.5327   -7.4956 O   0  0  0  0  0  0  0  0  0  0  0  0
   18.0462   70.8646   -8.2203 C   0  0  2  0  0  0  0  0  0  0  0  0
   19.5057   70.6956   -7.7976 C   0  0  2  0  0  0  0  0  0  0  0  0
   17.1205   70.1451   -7.2367 C   0  0  1  0  0  0  0  0  0  0  0  0
   19.7009   71.0931   -6.3337 C   0  0  1  0  0  0  0  0  0  0  0  0
   17.4606   70.4981   -5.7916 C   0  0  1  0  0  0  0  0  0  0  0  0
   18.4309   70.7284  -10.1532 H   0  0  0  0  0  0  0  0  0  0  0  0
   20.2373   71.2478   -9.5422 H   0  0  0  0  0  0  0  0  0  0  0  0
   15.5434   70.3137   -8.4123 H   0  0  0  0  0  0  0  0  0  0  0  0
   17.3716   68.3351   -4.8887 O   0  0  0  0  0  0  0  0  0  0  0  0
   15.8452   69.8458   -4.1224 O   0  0  0  0  0  0  0  0  0  0  0  0
   16.7886   69.5587   -4.8438 C   0  0  0  0  0  0  0  0  0  0  0  0
  1  4  1  0
  1 24  1  0
  1  2  1  6
  1  3  2  0
 25 28  1  0
 25 24  1  0
 25 26  1  1
 25 27  2  0
  6 11  1  0
  6 12  1  0
 29 36  1  0
 29 37  1  0
  9  7  1  1
  7 13  1  0
 10  8  1  1
  8 14  1  0
  4  5  1  0
 36 28  1  6
 33 30  1  6
 30 38  1  0
 34 31  1  6
 31 39  1  0
 35 32  1  6
 32 40  1  0
 41 43  1  0
 15 19  2  0
 42 43  2  0
 16 22  2  0
 12 17  1  6
 17 19  1  0
 17 20  1  0
 18 19  1  0
 18 22  1  0
 18 23  1  0
  9 10  1  0
  9 11  1  0
 10 12  1  0
 11  5  1  6
 33 34  1  0
 33 35  1  0
 34 36  1  0
 35 37  1  0
 37 43  1  1
 20 21  2  0
 21 22  1  0
M  CHG  3   2  -1  26  -1  41  -1
M  END
>  <COMPND>  (197) 
    udp_gluA.pdb 

>  <AUTHOR>  (197) 
    GENERATED BY OPEN BABEL 3.1.1

>  <MASTER>  (197) 
        0    0    0    0    0    0    0    0   56    0   56    0

>  <minimizedAffinity>  (197) 
-7.14047

>  <CNNscore>  (197) 
0.3219779730

>  <CNNaffinity>  (197) 
3.9935455322

>  <CNN_VS>  (197) 
1.2858337164

>  <CNNaffinity_variance>  (197) 
0.0821085647

$$$$
198
     RDKit          3D

 43 45  0  0  0  0  0  0  0  0999 V2000
   18.4009   74.7716   -1.3765 P   0  0  2  0  0  0  0  0  0  0  0  0
   17.0893   75.4913   -0.7598 O   0  0  0  0  0  0  0  0  0  0  0  0
   19.4905   75.7067   -1.8129 O   0  0  0  0  0  0  0  0  0  0  0  0
   17.8068   73.8000   -2.5258 O   0  0  0  0  0  0  0  0  0  0  0  0
   18.6821   72.8808   -3.1531 C   0  0  0  0  0  0  0  0  0  0  0  0
   17.4988   71.0142   -4.0982 O   0  0  0  0  0  0  0  0  0  0  0  0
   18.7431   69.3641   -1.9255 O   0  0  0  0  0  0  0  0  0  0  0  0
   20.2984   68.7744   -4.0864 O   0  0  0  0  0  0  0  0  0  0  0  0
   19.2931   70.4622   -2.6536 C   0  0  1  0  0  0  0  0  0  0  0  0
   19.6541   70.0309   -4.0593 C   0  0  2  0  0  0  0  0  0  0  0  0
   18.1759   71.4656   -2.9053 C   0  0  1  0  0  0  0  0  0  0  0  0
   18.2963   70.0066   -4.7402 C   0  0  2  0  0  0  0  0  0  0  0  0
   19.4384   68.7096   -1.7528 H   0  0  0  0  0  0  0  0  0  0  0  0
   21.1581   68.8423   -3.6410 H   0  0  0  0  0  0  0  0  0  0  0  0
   16.1645   69.6978   -6.5669 O   0  0  0  0  0  0  0  0  0  0  0  0
   18.7358   71.1696  -10.0976 O   0  0  0  0  0  0  0  0  0  0  0  0
   18.3812   70.3018   -6.1426 N   0  0  0  0  0  0  0  0  0  0  0  0
   17.4475   70.4302   -8.3238 N   0  0  0  0  0  0  0  0  0  0  0  0
   17.2518   70.1117   -6.9735 C   0  0  0  0  0  0  0  0  0  0  0  0
   19.5717   70.7750   -6.6809 C   0  0  0  0  0  0  0  0  0  0  0  0
   19.7429   71.0743   -7.9700 C   0  0  0  0  0  0  0  0  0  0  0  0
   18.6124   70.9032   -8.9060 C   0  0  0  0  0  0  0  0  0  0  0  0
   16.6760   70.3041   -8.9223 H   0  0  0  0  0  0  0  0  0  0  0  0
   18.8287   73.7365   -0.2110 O   0  0  0  0  0  0  0  0  0  0  0  0
   20.2775   73.3761    0.4093 P   0  0  2  0  0  0  0  0  0  0  0  0
   19.9599   72.1279    1.3897 O   0  0  0  0  0  0  0  0  0  0  0  0
   20.9645   74.5302    1.0801 O   0  0  0  0  0  0  0  0  0  0  0  0
   21.0995   72.7300   -0.8193 O   0  0  0  0  0  0  0  0  0  0  0  0
   23.3795   72.1341   -0.5833 O   0  0  0  0  0  0  0  0  0  0  0  0
   22.9856   72.3414   -4.6906 O   0  0  0  0  0  0  0  0  0  0  0  0
   21.7441   74.3582   -2.9802 O   0  0  0  0  0  0  0  0  0  0  0  0
   23.1086   69.7570   -3.3651 O   0  0  0  0  0  0  0  0  0  0  0  0
   22.5553   72.1020   -3.3506 C   0  0  2  0  0  0  0  0  0  0  0  0
   22.6845   73.3881   -2.5341 C   0  0  2  0  0  0  0  0  0  0  0  0
   23.4418   71.0041   -2.7583 C   0  0  1  0  0  0  0  0  0  0  0  0
   22.4533   73.1174   -1.0468 C   0  0  1  0  0  0  0  0  0  0  0  0
   23.2436   70.8812   -1.2502 C   0  0  1  0  0  0  0  0  0  0  0  0
   22.4364   73.0358   -5.0875 H   0  0  0  0  0  0  0  0  0  0  0  0
   21.8848   74.5346   -3.9233 H   0  0  0  0  0  0  0  0  0  0  0  0
   23.2303   69.8219   -4.3252 H   0  0  0  0  0  0  0  0  0  0  0  0
   24.1620   69.9667    0.7047 O   0  0  0  0  0  0  0  0  0  0  0  0
   25.2415   69.5286   -1.2554 O   0  0  0  0  0  0  0  0  0  0  0  0
   24.3283   70.0559   -0.6382 C   0  0  0  0  0  0  0  0  0  0  0  0
  1  4  1  0
  1 24  1  0
  1  2  1  1
  1  3  2  0
 25 28  1  0
 25 24  1  0
 25 26  1  1
 25 27  2  0
  6 11  1  0
  6 12  1  0
 29 36  1  0
 29 37  1  0
  9  7  1  1
  7 13  1  0
 10  8  1  1
  8 14  1  0
  4  5  1  0
 36 28  1  6
 33 30  1  6
 30 38  1  0
 34 31  1  6
 31 39  1  0
 35 32  1  6
 32 40  1  0
 41 43  1  0
 15 19  2  0
 42 43  2  0
 16 22  2  0
 12 17  1  6
 17 19  1  0
 17 20  1  0
 18 19  1  0
 18 22  1  0
 18 23  1  0
  9 10  1  0
  9 11  1  0
 10 12  1  0
 11  5  1  6
 33 34  1  0
 33 35  1  0
 34 36  1  0
 35 37  1  0
 37 43  1  1
 20 21  2  0
 21 22  1  0
M  CHG  3   2  -1  26  -1  41  -1
M  END
>  <COMPND>  (198) 
    udp_gluA.pdb 

>  <AUTHOR>  (198) 
    GENERATED BY OPEN BABEL 3.1.1

>  <MASTER>  (198) 
        0    0    0    0    0    0    0    0   56    0   56    0

>  <minimizedAffinity>  (198) 
-7.93648

>  <CNNscore>  (198) 
0.3162595928

>  <CNNaffinity>  (198) 
4.3477449417

>  <CNN_VS>  (198) 
1.3750160933

>  <CNNaffinity_variance>  (198) 
0.2564479709

$$$$
199
     RDKit          3D

 43 45  0  0  0  0  0  0  0  0999 V2000
   21.9146   72.7915   -5.5683 P   0  0  2  0  0  0  0  0  0  0  0  0
   20.8068   73.9431   -5.3121 O   0  0  0  0  0  0  0  0  0  0  0  0
   23.3395   73.2572   -5.5023 O   0  0  0  0  0  0  0  0  0  0  0  0
   21.4593   72.1189   -6.9677 O   0  0  0  0  0  0  0  0  0  0  0  0
   20.1071   72.2422   -7.3688 C   0  0  0  0  0  0  0  0  0  0  0  0
   19.1218   70.3693   -6.2291 O   0  0  0  0  0  0  0  0  0  0  0  0
   18.0844   69.5206   -8.9115 O   0  0  0  0  0  0  0  0  0  0  0  0
   15.8962   70.6745   -7.7642 O   0  0  0  0  0  0  0  0  0  0  0  0
   18.2432   70.8358   -8.3788 C   0  0  1  0  0  0  0  0  0  0  0  0
   17.1711   71.1164   -7.3472 C   0  0  2  0  0  0  0  0  0  0  0  0
   19.5099   70.8507   -7.5341 C   0  0  1  0  0  0  0  0  0  0  0  0
   17.6883   70.3537   -6.1395 C   0  0  2  0  0  0  0  0  0  0  0  0
   17.2813   69.4864   -9.4551 H   0  0  0  0  0  0  0  0  0  0  0  0
   15.6113   71.1907   -8.5351 H   0  0  0  0  0  0  0  0  0  0  0  0
   15.8999   69.1806   -4.2950 O   0  0  0  0  0  0  0  0  0  0  0  0
   16.2374   72.7611   -1.4122 O   0  0  0  0  0  0  0  0  0  0  0  0
   17.2914   70.9575   -4.8990 N   0  0  0  0  0  0  0  0  0  0  0  0
   16.0689   70.9655   -2.8614 N   0  0  0  0  0  0  0  0  0  0  0  0
   16.3872   70.2844   -4.0437 C   0  0  0  0  0  0  0  0  0  0  0  0
   17.7973   72.2009   -4.5397 C   0  0  0  0  0  0  0  0  0  0  0  0
   17.4846   72.8375   -3.4094 C   0  0  0  0  0  0  0  0  0  0  0  0
   16.5457   72.2032   -2.4610 C   0  0  0  0  0  0  0  0  0  0  0  0
   15.4396   70.5176   -2.2510 H   0  0  0  0  0  0  0  0  0  0  0  0
   21.5237   71.6632   -4.4788 O   0  0  0  0  0  0  0  0  0  0  0  0
   22.3029   71.1463   -3.1599 P   0  0  2  0  0  0  0  0  0  0  0  0
   23.8406   71.5576   -3.4538 O   0  0  0  0  0  0  0  0  0  0  0  0
   22.0996   69.6902   -2.8557 O   0  0  0  0  0  0  0  0  0  0  0  0
   21.8306   72.1477   -1.9867 O   0  0  0  0  0  0  0  0  0  0  0  0
   22.9254   73.1384   -0.1349 O   0  0  0  0  0  0  0  0  0  0  0  0
   19.2123   72.2656    1.4522 O   0  0  0  0  0  0  0  0  0  0  0  0
   20.5693   70.3468   -0.2831 O   0  0  0  0  0  0  0  0  0  0  0  0
   19.8884   75.0019    0.7405 O   0  0  0  0  0  0  0  0  0  0  0  0
   20.1401   72.6261    0.4289 C   0  0  2  0  0  0  0  0  0  0  0  0
   21.1752   71.5134    0.2615 C   0  0  2  0  0  0  0  0  0  0  0  0
   20.8231   73.9299    0.8477 C   0  0  1  0  0  0  0  0  0  0  0  0
   22.3134   71.9588   -0.6578 C   0  0  1  0  0  0  0  0  0  0  0  0
   22.0246   74.2397   -0.0406 C   0  0  1  0  0  0  0  0  0  0  0  0
   18.7660   71.4395    1.2079 H   0  0  0  0  0  0  0  0  0  0  0  0
   19.8459   70.0588    0.2950 H   0  0  0  0  0  0  0  0  0  0  0  0
   19.1187   74.8170    1.3011 H   0  0  0  0  0  0  0  0  0  0  0  0
   22.5413   75.5029    1.8669 O   0  0  0  0  0  0  0  0  0  0  0  0
   23.7391   75.9371   -0.0241 O   0  0  0  0  0  0  0  0  0  0  0  0
   22.8692   75.3131    0.5648 C   0  0  0  0  0  0  0  0  0  0  0  0
  1  4  1  0
  1 24  1  0
  1  2  1  1
  1  3  2  0
 25 28  1  0
 25 24  1  0
 25 26  1  6
 25 27  2  0
  6 11  1  0
  6 12  1  0
 29 36  1  0
 29 37  1  0
  9  7  1  1
  7 13  1  0
 10  8  1  6
  8 14  1  0
  4  5  1  0
 36 28  1  6
 33 30  1  1
 30 38  1  0
 34 31  1  6
 31 39  1  0
 35 32  1  6
 32 40  1  0
 41 43  1  0
 15 19  2  0
 42 43  2  0
 16 22  2  0
 12 17  1  1
 17 19  1  0
 17 20  1  0
 18 19  1  0
 18 22  1  0
 18 23  1  0
  9 10  1  0
  9 11  1  0
 10 12  1  0
 11  5  1  1
 33 34  1  0
 33 35  1  0
 34 36  1  0
 35 37  1  0
 37 43  1  1
 20 21  2  0
 21 22  1  0
M  CHG  3   2  -1  26  -1  41  -1
M  END
>  <COMPND>  (199) 
    udp_gluA.pdb 

>  <AUTHOR>  (199) 
    GENERATED BY OPEN BABEL 3.1.1

>  <MASTER>  (199) 
        0    0    0    0    0    0    0    0   56    0   56    0

>  <minimizedAffinity>  (199) 
-7.66044

>  <CNNscore>  (199) 
0.3011337519

>  <CNNaffinity>  (199) 
4.0130395889

>  <CNN_VS>  (199) 
1.2084616423

>  <CNNaffinity_variance>  (199) 
0.3593056798

$$$$
200
     RDKit          3D

 43 45  0  0  0  0  0  0  0  0999 V2000
   22.6000   72.7915   -3.6157 P   0  0  2  0  0  0  0  0  0  0  0  0
   23.7210   71.6246   -3.5943 O   0  0  0  0  0  0  0  0  0  0  0  0
   23.1421   74.1908   -3.6158 O   0  0  0  0  0  0  0  0  0  0  0  0
   21.6246   72.4159   -2.3807 O   0  0  0  0  0  0  0  0  0  0  0  0
   21.5023   73.3362   -1.3117 C   0  0  0  0  0  0  0  0  0  0  0  0
   23.0231   74.1700    0.3524 O   0  0  0  0  0  0  0  0  0  0  0  0
   22.8533   71.4499    1.6029 O   0  0  0  0  0  0  0  0  0  0  0  0
   21.1836   72.9311    3.1694 O   0  0  0  0  0  0  0  0  0  0  0  0
   21.8379   72.2059    0.9427 C   0  0  1  0  0  0  0  0  0  0  0  0
   21.3678   73.3391    1.8300 C   0  0  2  0  0  0  0  0  0  0  0  0
   22.4865   72.9547   -0.2135 C   0  0  1  0  0  0  0  0  0  0  0  0
   22.4930   74.3481    1.6755 C   0  0  2  0  0  0  0  0  0  0  0  0
   22.4627   70.9627    2.3457 H   0  0  0  0  0  0  0  0  0  0  0  0
   20.4567   72.2896    3.2149 H   0  0  0  0  0  0  0  0  0  0  0  0
   23.7362   76.2845    3.3130 O   0  0  0  0  0  0  0  0  0  0  0  0
   20.6606   79.5125    2.1446 O   0  0  0  0  0  0  0  0  0  0  0  0
   22.0380   75.7023    1.8178 N   0  0  0  0  0  0  0  0  0  0  0  0
   22.2026   77.8901    2.7303 N   0  0  0  0  0  0  0  0  0  0  0  0
   22.7342   76.5953    2.6663 C   0  0  0  0  0  0  0  0  0  0  0  0
   20.9160   76.1338    1.1208 C   0  0  0  0  0  0  0  0  0  0  0  0
   20.4213   77.3711    1.1919 C   0  0  0  0  0  0  0  0  0  0  0  0
   21.0892   78.3658    2.0567 C   0  0  0  0  0  0  0  0  0  0  0  0
   22.6691   78.5292    3.3162 H   0  0  0  0  0  0  0  0  0  0  0  0
   21.7086   72.4147   -4.9104 O   0  0  0  0  0  0  0  0  0  0  0  0
   21.5629   73.1418   -6.3470 P   0  0  2  0  0  0  0  0  0  0  0  0
   22.8217   72.5628   -7.1840 O   0  0  0  0  0  0  0  0  0  0  0  0
   21.5044   74.6403   -6.2755 O   0  0  0  0  0  0  0  0  0  0  0  0
   20.2714   72.4530   -7.0252 O   0  0  0  0  0  0  0  0  0  0  0  0
   19.1807   70.5412   -6.1508 O   0  0  0  0  0  0  0  0  0  0  0  0
   18.0832   70.3885  -10.1308 O   0  0  0  0  0  0  0  0  0  0  0  0
   20.8215   71.0701   -9.3749 O   0  0  0  0  0  0  0  0  0  0  0  0
   16.1767   71.2779   -8.1245 O   0  0  0  0  0  0  0  0  0  0  0  0
   18.4426   71.0188   -8.9014 C   0  0  2  0  0  0  0  0  0  0  0  0
   19.8391   70.5606   -8.4805 C   0  0  2  0  0  0  0  0  0  0  0  0
   17.4102   70.6184   -7.8451 C   0  0  1  0  0  0  0  0  0  0  0  0
   20.1650   71.0310   -7.0623 C   0  0  1  0  0  0  0  0  0  0  0  0
   17.8666   71.0112   -6.4430 C   0  0  1  0  0  0  0  0  0  0  0  0
   18.7254   70.6285  -10.8173 H   0  0  0  0  0  0  0  0  0  0  0  0
   20.6208   70.7756  -10.2768 H   0  0  0  0  0  0  0  0  0  0  0  0
   15.8752   71.0365   -9.0143 H   0  0  0  0  0  0  0  0  0  0  0  0
   16.1860   69.4429   -5.9764 O   0  0  0  0  0  0  0  0  0  0  0  0
   17.0942   70.5528   -4.2036 O   0  0  0  0  0  0  0  0  0  0  0  0
   17.0305   70.3367   -5.4046 C   0  0  0  0  0  0  0  0  0  0  0  0
  1  4  1  0
  1 24  1  0
  1  2  1  1
  1  3  2  0
 25 28  1  0
 25 24  1  0
 25 26  1  6
 25 27  2  0
  6 11  1  0
  6 12  1  0
 29 36  1  0
 29 37  1  0
  9  7  1  1
  7 13  1  0
 10  8  1  1
  8 14  1  0
  4  5  1  0
 36 28  1  6
 33 30  1  6
 30 38  1  0
 34 31  1  6
 31 39  1  0
 35 32  1  6
 32 40  1  0
 41 43  1  0
 15 19  2  0
 42 43  2  0
 16 22  2  0
 12 17  1  6
 17 19  1  0
 17 20  1  0
 18 19  1  0
 18 22  1  0
 18 23  1  0
  9 10  1  0
  9 11  1  0
 10 12  1  0
 11  5  1  6
 33 34  1  0
 33 35  1  0
 34 36  1  0
 35 37  1  0
 37 43  1  1
 20 21  2  0
 21 22  1  0
M  CHG  3   2  -1  26  -1  41  -1
M  END
