1
     RDKit          3D

 43 45  0  0  0  0  0  0  0  0999 V2000
   20.9288   70.3703   -2.2622 P   0  0  2  0  0  0  0  0  0  0  0  0
   20.8674   71.9859   -2.3218 O   0  0  0  0  0  0  0  0  0  0  0  0
   21.4332   69.7088   -3.5110 O   0  0  0  0  0  0  0  0  0  0  0  0
   19.4410   69.9421   -1.7921 O   0  0  0  0  0  0  0  0  0  0  0  0
   18.5974   69.2922   -2.7269 C   0  0  0  0  0  0  0  0  0  0  0  0
   17.6665   71.0783   -4.0373 O   0  0  0  0  0  0  0  0  0  0  0  0
   14.9845   70.1103   -3.1096 O   0  0  0  0  0  0  0  0  0  0  0  0
   15.1506   69.0777   -5.6280 O   0  0  0  0  0  0  0  0  0  0  0  0
   16.1534   69.3582   -3.4310 C   0  0  1  0  0  0  0  0  0  0  0  0
   16.3563   69.3174   -4.9313 C   0  0  2  0  0  0  0  0  0  0  0  0
   17.3664   70.1553   -2.9676 C   0  0  1  0  0  0  0  0  0  0  0  0
   16.9280   70.6972   -5.2096 C   0  0  2  0  0  0  0  0  0  0  0  0
   14.1966   69.6211   -3.3958 H   0  0  0  0  0  0  0  0  0  0  0  0
   14.8270   68.1877   -5.4181 H   0  0  0  0  0  0  0  0  0  0  0  0
   16.0774   70.5813   -7.9005 O   0  0  0  0  0  0  0  0  0  0  0  0
   20.4088   70.7350   -9.4677 O   0  0  0  0  0  0  0  0  0  0  0  0
   17.8121   70.7057   -6.3408 N   0  0  0  0  0  0  0  0  0  0  0  0
   18.2348   70.6581   -8.6787 N   0  0  0  0  0  0  0  0  0  0  0  0
   17.2830   70.6430   -7.6510 C   0  0  0  0  0  0  0  0  0  0  0  0
   19.1871   70.7761   -6.1453 C   0  0  0  0  0  0  0  0  0  0  0  0
   20.0814   70.7882   -7.1359 C   0  0  0  0  0  0  0  0  0  0  0  0
   19.6115   70.7257   -8.5349 C   0  0  0  0  0  0  0  0  0  0  0  0
   17.8894   70.6149   -9.5999 H   0  0  0  0  0  0  0  0  0  0  0  0
   21.8213   70.0888   -0.9442 O   0  0  0  0  0  0  0  0  0  0  0  0
   23.1066   70.8660   -0.3467 P   0  0  2  0  0  0  0  0  0  0  0  0
   23.8898   71.3619   -1.6726 O   0  0  0  0  0  0  0  0  0  0  0  0
   23.9399   70.0446    0.5939 O   0  0  0  0  0  0  0  0  0  0  0  0
   22.5034   72.2164    0.2994 O   0  0  0  0  0  0  0  0  0  0  0  0
   22.5546   73.0077    2.5328 O   0  0  0  0  0  0  0  0  0  0  0  0
   18.7768   74.2883    1.4656 O   0  0  0  0  0  0  0  0  0  0  0  0
   20.8931   76.2069    1.7626 O   0  0  0  0  0  0  0  0  0  0  0  0
   19.7501   71.7265    0.5331 O   0  0  0  0  0  0  0  0  0  0  0  0
   20.1590   73.9881    1.2539 C   0  0  1  0  0  0  0  0  0  0  0  0
   20.9888   74.8551    2.2028 C   0  0  1  0  0  0  0  0  0  0  0  0
   20.3963   72.5053    1.5342 C   0  0  2  0  0  0  0  0  0  0  0  0
   22.4553   74.4033    2.2263 C   0  0  1  0  0  0  0  0  0  0  0  0
   21.8884   72.1718    1.5844 C   0  0  1  0  0  0  0  0  0  0  0  0
   18.6192   75.2282    1.2889 H   0  0  0  0  0  0  0  0  0  0  0  0
   19.9621   76.4795    1.7519 H   0  0  0  0  0  0  0  0  0  0  0  0
   18.8062   71.9467    0.5115 H   0  0  0  0  0  0  0  0  0  0  0  0
   23.1143   74.4842    4.5215 O   0  0  0  0  0  0  0  0  0  0  0  0
   23.2671   75.1508    3.2819 C   0  0  0  0  0  0  0  0  0  0  0  0
   23.6258   74.9487    5.2029 H   0  0  0  0  0  0  0  0  0  0  0  0
 25 28  1  0
 25 24  1  0
 25 26  1  6
 25 27  2  0
  1  4  1  0
  1 24  1  0
  1  2  1  6
  1  3  2  0
  6 11  1  0
  6 12  1  0
 29 36  1  0
 29 37  1  0
  9  7  1  6
  7 13  1  0
 10  8  1  6
  8 14  1  0
 37 28  1  6
  4  5  1  0
 33 30  1  1
 30 38  1  0
 34 31  1  6
 31 39  1  0
 35 32  1  6
 32 40  1  0
 41 42  1  0
 41 43  1  0
 15 19  2  0
 16 22  2  0
 12 17  1  6
 17 19  1  0
 17 20  1  0
 18 19  1  0
 18 22  1  0
 18 23  1  0
  9 10  1  0
  9 11  1  0
 10 12  1  0
 11  5  1  6
 33 34  1  0
 33 35  1  0
 34 36  1  0
 35 37  1  0
 36 42  1  1
 20 21  2  0
 21 22  1  0
M  CHG  2   2  -1  26  -1
M  END
>  <COMPND>  (1) 
    8629 

>  <AUTHOR>  (1) 
    GENERATED BY OPEN BABEL 3.1.1

>  <MASTER>  (1) 
        0    0    0    0    0    0    0    0   58    0   58    0

>  <minimizedAffinity>  (1) 
-8.01557

>  <CNNscore>  (1) 
0.5901541114

>  <CNNaffinity>  (1) 
4.5074400902

>  <CNN_VS>  (1) 
2.6600842476

>  <CNNaffinity_variance>  (1) 
0.0213146266

$$$$
2
     RDKit          3D

 43 45  0  0  0  0  0  0  0  0999 V2000
   21.8637   70.5773   -2.2667 P   0  0  2  0  0  0  0  0  0  0  0  0
   20.9561   69.5847   -1.3676 O   0  0  0  0  0  0  0  0  0  0  0  0
   23.1420   69.9795   -2.7765 O   0  0  0  0  0  0  0  0  0  0  0  0
   22.0237   71.8981   -1.3460 O   0  0  0  0  0  0  0  0  0  0  0  0
   22.7314   71.7883   -0.1234 C   0  0  0  0  0  0  0  0  0  0  0  0
   22.3669   72.6541    2.0882 O   0  0  0  0  0  0  0  0  0  0  0  0
   19.4444   72.2272    1.5711 O   0  0  0  0  0  0  0  0  0  0  0  0
   19.7359   74.9070    1.1584 O   0  0  0  0  0  0  0  0  0  0  0  0
   20.4692   72.6412    0.6690 C   0  0  1  0  0  0  0  0  0  0  0  0
   20.8600   74.0788    0.9411 C   0  0  2  0  0  0  0  0  0  0  0  0
   21.7447   71.8908    1.0316 C   0  0  1  0  0  0  0  0  0  0  0  0
   21.7315   73.9398    2.1778 C   0  0  2  0  0  0  0  0  0  0  0  0
   18.6197   72.6929    1.3590 H   0  0  0  0  0  0  0  0  0  0  0  0
   19.2135   74.9638    0.3431 H   0  0  0  0  0  0  0  0  0  0  0  0
   23.1191   74.6411    4.5358 O   0  0  0  0  0  0  0  0  0  0  0  0
   25.5915   77.8541    2.3438 O   0  0  0  0  0  0  0  0  0  0  0  0
   22.7432   74.9558    2.2518 N   0  0  0  0  0  0  0  0  0  0  0  0
   24.3492   76.2403    3.4424 N   0  0  0  0  0  0  0  0  0  0  0  0
   23.3785   75.2313    3.4851 C   0  0  0  0  0  0  0  0  0  0  0  0
   23.0963   75.6667    1.1099 C   0  0  0  0  0  0  0  0  0  0  0  0
   24.0231   76.6268    1.0863 C   0  0  0  0  0  0  0  0  0  0  0  0
   24.7344   76.9761    2.3329 C   0  0  0  0  0  0  0  0  0  0  0  0
   24.8048   76.4496    4.2900 H   0  0  0  0  0  0  0  0  0  0  0  0
   20.8399   71.0605   -3.4206 O   0  0  0  0  0  0  0  0  0  0  0  0
   20.8651   72.3555   -4.3877 P   0  0  2  0  0  0  0  0  0  0  0  0
   22.3381   72.2925   -5.0539 O   0  0  0  0  0  0  0  0  0  0  0  0
   20.5549   73.6492   -3.6920 O   0  0  0  0  0  0  0  0  0  0  0  0
   19.8568   71.9854   -5.5924 O   0  0  0  0  0  0  0  0  0  0  0  0
   19.0096   69.7721   -5.6023 O   0  0  0  0  0  0  0  0  0  0  0  0
   18.0791   70.8521   -9.4777 O   0  0  0  0  0  0  0  0  0  0  0  0
   15.9819   70.6115   -7.5303 O   0  0  0  0  0  0  0  0  0  0  0  0
   20.5715   71.7271   -8.2938 O   0  0  0  0  0  0  0  0  0  0  0  0
   18.2666   71.0630   -8.0756 C   0  0  1  0  0  0  0  0  0  0  0  0
   17.3096   70.1392   -7.3195 C   0  0  1  0  0  0  0  0  0  0  0  0
   19.7167   70.7481   -7.7130 C   0  0  2  0  0  0  0  0  0  0  0  0
   17.6352   70.1117   -5.8201 C   0  0  1  0  0  0  0  0  0  0  0  0
   19.9217   70.6969   -6.1979 C   0  0  1  0  0  0  0  0  0  0  0  0
   17.1604   71.0508   -9.7146 H   0  0  0  0  0  0  0  0  0  0  0  0
   15.7892   70.6244   -8.4811 H   0  0  0  0  0  0  0  0  0  0  0  0
   20.4324   71.7495   -9.2529 H   0  0  0  0  0  0  0  0  0  0  0  0
   15.5007   69.6121   -4.8697 O   0  0  0  0  0  0  0  0  0  0  0  0
   16.7963   69.0783   -5.0715 C   0  0  0  0  0  0  0  0  0  0  0  0
   14.9555   68.9651   -4.3946 H   0  0  0  0  0  0  0  0  0  0  0  0
 25 28  1  0
 25 24  1  0
 25 26  1  6
 25 27  2  0
  1  4  1  0
  1 24  1  0
  1  2  1  1
  1  3  2  0
  6 11  1  0
  6 12  1  0
 29 36  1  0
 29 37  1  0
  9  7  1  1
  7 13  1  0
 10  8  1  1
  8 14  1  0
 37 28  1  1
  4  5  1  0
 33 30  1  6
 30 38  1  0
 34 31  1  1
 31 39  1  0
 35 32  1  1
 32 40  1  0
 41 42  1  0
 41 43  1  0
 15 19  2  0
 16 22  2  0
 12 17  1  6
 17 19  1  0
 17 20  1  0
 18 19  1  0
 18 22  1  0
 18 23  1  0
  9 10  1  0
  9 11  1  0
 10 12  1  0
 11  5  1  6
 33 34  1  0
 33 35  1  0
 34 36  1  0
 35 37  1  0
 36 42  1  1
 20 21  2  0
 21 22  1  0
M  CHG  2   2  -1  26  -1
M  END
>  <COMPND>  (2) 
    8629 

>  <AUTHOR>  (2) 
    GENERATED BY OPEN BABEL 3.1.1

>  <MASTER>  (2) 
        0    0    0    0    0    0    0    0   58    0   58    0

>  <minimizedAffinity>  (2) 
-7.81325

>  <CNNscore>  (2) 
0.5512585044

>  <CNNaffinity>  (2) 
4.2153449059

>  <CNN_VS>  (2) 
2.3237447739

>  <CNNaffinity_variance>  (2) 
0.0311410427

$$$$
3
     RDKit          3D

 43 45  0  0  0  0  0  0  0  0999 V2000
   18.0356   74.2705   -5.3849 P   0  0  2  0  0  0  0  0  0  0  0  0
   17.6424   73.1220   -4.3154 O   0  0  0  0  0  0  0  0  0  0  0  0
   17.2641   75.5506   -5.2526 O   0  0  0  0  0  0  0  0  0  0  0  0
   17.9194   73.5247   -6.8161 O   0  0  0  0  0  0  0  0  0  0  0  0
   19.0954   72.9879   -7.3962 C   0  0  0  0  0  0  0  0  0  0  0  0
   19.2899   70.5989   -7.2264 O   0  0  0  0  0  0  0  0  0  0  0  0
   17.0510   70.4627   -9.2163 O   0  0  0  0  0  0  0  0  0  0  0  0
   15.7765   69.9822   -6.8538 O   0  0  0  0  0  0  0  0  0  0  0  0
   17.2625   71.3966   -8.1587 C   0  0  1  0  0  0  0  0  0  0  0  0
   16.9600   70.7537   -6.8213 C   0  0  2  0  0  0  0  0  0  0  0  0
   18.7601   71.6568   -8.0550 C   0  0  1  0  0  0  0  0  0  0  0  0
   18.2018   69.9098   -6.5892 C   0  0  2  0  0  0  0  0  0  0  0  0
   16.1015   70.2811   -9.3020 H   0  0  0  0  0  0  0  0  0  0  0  0
   15.0151   70.5640   -7.0038 H   0  0  0  0  0  0  0  0  0  0  0  0
   16.8432   68.1433   -4.8539 O   0  0  0  0  0  0  0  0  0  0  0  0
   19.4434   69.3854   -1.2570 O   0  0  0  0  0  0  0  0  0  0  0  0
   18.5033   69.7511   -5.1945 N   0  0  0  0  0  0  0  0  0  0  0  0
   18.1391   68.7630   -3.0643 N   0  0  0  0  0  0  0  0  0  0  0  0
   17.7604   68.8376   -4.4108 C   0  0  0  0  0  0  0  0  0  0  0  0
   19.5260   70.4961   -4.6174 C   0  0  0  0  0  0  0  0  0  0  0  0
   19.8738   70.4142   -3.3315 C   0  0  0  0  0  0  0  0  0  0  0  0
   19.1474   69.4835   -2.4438 C   0  0  0  0  0  0  0  0  0  0  0  0
   17.6352   68.1336   -2.4990 H   0  0  0  0  0  0  0  0  0  0  0  0
   19.6322   74.4235   -5.1835 O   0  0  0  0  0  0  0  0  0  0  0  0
   20.5069   74.7873   -3.8738 P   0  0  2  0  0  0  0  0  0  0  0  0
   19.4031   74.8347   -2.6919 O   0  0  0  0  0  0  0  0  0  0  0  0
   21.3244   76.0394   -4.0082 O   0  0  0  0  0  0  0  0  0  0  0  0
   21.3678   73.4553   -3.5745 O   0  0  0  0  0  0  0  0  0  0  0  0
   22.3735   73.4616   -1.4285 O   0  0  0  0  0  0  0  0  0  0  0  0
   24.3575   70.2375   -3.0775 O   0  0  0  0  0  0  0  0  0  0  0  0
   22.3528   69.7929   -1.0697 O   0  0  0  0  0  0  0  0  0  0  0  0
   23.7760   72.5606   -4.7037 O   0  0  0  0  0  0  0  0  0  0  0  0
   23.2450   71.1087   -2.8567 C   0  0  1  0  0  0  0  0  0  0  0  0
   22.8981   71.0753   -1.3670 C   0  0  1  0  0  0  0  0  0  0  0  0
   23.6256   72.5236   -3.2886 C   0  0  2  0  0  0  0  0  0  0  0  0
   21.8945   72.1792   -1.0071 C   0  0  1  0  0  0  0  0  0  0  0  0
   22.5848   73.5506   -2.8390 C   0  0  1  0  0  0  0  0  0  0  0  0
   24.1223   69.3373   -2.8058 H   0  0  0  0  0  0  0  0  0  0  0  0
   22.9962   69.1049   -1.3020 H   0  0  0  0  0  0  0  0  0  0  0  0
   24.4377   71.9063   -4.9756 H   0  0  0  0  0  0  0  0  0  0  0  0
   20.6323   71.3490    0.8440 O   0  0  0  0  0  0  0  0  0  0  0  0
   21.6547   72.2653    0.4986 C   0  0  0  0  0  0  0  0  0  0  0  0
   20.4692   71.3926    1.7996 H   0  0  0  0  0  0  0  0  0  0  0  0
 25 28  1  0
 25 24  1  0
 25 26  1  1
 25 27  2  0
  1  4  1  0
  1 24  1  0
  1  2  1  1
  1  3  2  0
  6 11  1  0
  6 12  1  0
 29 36  1  0
 29 37  1  0
  9  7  1  6
  7 13  1  0
 10  8  1  6
  8 14  1  0
 37 28  1  6
  4  5  1  0
 33 30  1  1
 30 38  1  0
 34 31  1  6
 31 39  1  0
 35 32  1  6
 32 40  1  0
 41 42  1  0
 41 43  1  0
 15 19  2  0
 16 22  2  0
 12 17  1  1
 17 19  1  0
 17 20  1  0
 18 19  1  0
 18 22  1  0
 18 23  1  0
  9 10  1  0
  9 11  1  0
 10 12  1  0
 11  5  1  1
 33 34  1  0
 33 35  1  0
 34 36  1  0
 35 37  1  0
 36 42  1  1
 20 21  2  0
 21 22  1  0
M  CHG  2   2  -1  26  -1
M  END
>  <COMPND>  (3) 
    8629 

>  <AUTHOR>  (3) 
    GENERATED BY OPEN BABEL 3.1.1

>  <MASTER>  (3) 
        0    0    0    0    0    0    0    0   58    0   58    0

>  <minimizedAffinity>  (3) 
-7.31665

>  <CNNscore>  (3) 
0.5351144671

>  <CNNaffinity>  (3) 
4.3309183121

>  <CNN_VS>  (3) 
2.3175370693

>  <CNNaffinity_variance>  (3) 
0.5321391821

$$$$
4
     RDKit          3D

 43 45  0  0  0  0  0  0  0  0999 V2000
   21.6801   72.7318   -5.9673 P   0  0  2  0  0  0  0  0  0  0  0  0
   21.2559   74.2293   -5.5257 O   0  0  0  0  0  0  0  0  0  0  0  0
   22.8842   72.6511   -6.8589 O   0  0  0  0  0  0  0  0  0  0  0  0
   20.3162   72.1035   -6.5698 O   0  0  0  0  0  0  0  0  0  0  0  0
   20.2132   71.9314   -7.9725 C   0  0  0  0  0  0  0  0  0  0  0  0
   18.9494   70.1355   -6.9970 O   0  0  0  0  0  0  0  0  0  0  0  0
   17.6544   69.8362   -9.6847 O   0  0  0  0  0  0  0  0  0  0  0  0
   15.7711   71.2072   -8.2669 O   0  0  0  0  0  0  0  0  0  0  0  0
   18.0774   71.0223   -9.0141 C   0  0  1  0  0  0  0  0  0  0  0  0
   17.1237   71.3572   -7.8863 C   0  0  2  0  0  0  0  0  0  0  0  0
   19.3619   70.7022   -8.2599 C   0  0  1  0  0  0  0  0  0  0  0  0
   17.5428   70.3655   -6.8143 C   0  0  2  0  0  0  0  0  0  0  0  0
   16.8356   70.0161  -10.1738 H   0  0  0  0  0  0  0  0  0  0  0  0
   15.5531   71.8600   -8.9504 H   0  0  0  0  0  0  0  0  0  0  0  0
   16.2019   68.9440   -4.7749 O   0  0  0  0  0  0  0  0  0  0  0  0
   16.7475   72.3890   -1.7624 O   0  0  0  0  0  0  0  0  0  0  0  0
   17.3207   70.8670   -5.4875 N   0  0  0  0  0  0  0  0  0  0  0  0
   16.4748   70.6604   -3.2765 N   0  0  0  0  0  0  0  0  0  0  0  0
   16.6353   70.0735   -4.5382 C   0  0  0  0  0  0  0  0  0  0  0  0
   17.7806   72.1322   -5.1388 C   0  0  0  0  0  0  0  0  0  0  0  0
   17.6183   72.6779   -3.9317 C   0  0  0  0  0  0  0  0  0  0  0  0
   16.9127   71.9147   -2.8820 C   0  0  0  0  0  0  0  0  0  0  0  0
   16.0000   70.1262   -2.5991 H   0  0  0  0  0  0  0  0  0  0  0  0
   21.8384   71.9667   -4.5522 O   0  0  0  0  0  0  0  0  0  0  0  0
   23.0360   71.9796   -3.4665 P   0  0  2  0  0  0  0  0  0  0  0  0
   24.1338   72.9609   -4.1368 O   0  0  0  0  0  0  0  0  0  0  0  0
   23.5581   70.6179   -3.1101 O   0  0  0  0  0  0  0  0  0  0  0  0
   22.4475   72.8179   -2.2191 O   0  0  0  0  0  0  0  0  0  0  0  0
   23.3482   73.7905   -0.2546 O   0  0  0  0  0  0  0  0  0  0  0  0
   20.0279   71.9579    1.3789 O   0  0  0  0  0  0  0  0  0  0  0  0
   20.0793   74.8164    1.1058 O   0  0  0  0  0  0  0  0  0  0  0  0
   21.5223   70.6350   -0.7178 O   0  0  0  0  0  0  0  0  0  0  0  0
   20.7714   72.6481    0.3708 C   0  0  1  0  0  0  0  0  0  0  0  0
   21.2289   73.9898    0.9464 C   0  0  1  0  0  0  0  0  0  0  0  0
   21.9746   71.7976   -0.0321 C   0  0  2  0  0  0  0  0  0  0  0  0
   22.2513   74.6683    0.0248 C   0  0  1  0  0  0  0  0  0  0  0  0
   22.9532   72.5824   -0.9076 C   0  0  1  0  0  0  0  0  0  0  0  0
   19.2622   72.4924    1.6388 H   0  0  0  0  0  0  0  0  0  0  0  0
   19.4414   74.3762    1.6894 H   0  0  0  0  0  0  0  0  0  0  0  0
   20.9038   70.1468   -0.1530 H   0  0  0  0  0  0  0  0  0  0  0  0
   22.5710   77.0251   -0.2036 O   0  0  0  0  0  0  0  0  0  0  0  0
   22.8386   75.9302    0.6530 C   0  0  0  0  0  0  0  0  0  0  0  0
   22.9388   77.8353    0.1837 H   0  0  0  0  0  0  0  0  0  0  0  0
 25 28  1  0
 25 24  1  0
 25 26  1  6
 25 27  2  0
  1  4  1  0
  1 24  1  0
  1  2  1  1
  1  3  2  0
  6 11  1  0
  6 12  1  0
 29 36  1  0
 29 37  1  0
  9  7  1  1
  7 13  1  0
 10  8  1  6
  8 14  1  0
 37 28  1  6
  4  5  1  0
 33 30  1  1
 30 38  1  0
 34 31  1  6
 31 39  1  0
 35 32  1  6
 32 40  1  0
 41 42  1  0
 41 43  1  0
 15 19  2  0
 16 22  2  0
 12 17  1  1
 17 19  1  0
 17 20  1  0
 18 19  1  0
 18 22  1  0
 18 23  1  0
  9 10  1  0
  9 11  1  0
 10 12  1  0
 11  5  1  1
 33 34  1  0
 33 35  1  0
 34 36  1  0
 35 37  1  0
 36 42  1  1
 20 21  2  0
 21 22  1  0
M  CHG  2   2  -1  26  -1
M  END
>  <COMPND>  (4) 
    8629 

>  <AUTHOR>  (4) 
    GENERATED BY OPEN BABEL 3.1.1

>  <MASTER>  (4) 
        0    0    0    0    0    0    0    0   58    0   58    0

>  <minimizedAffinity>  (4) 
-7.14545

>  <CNNscore>  (4) 
0.5032395720

>  <CNNaffinity>  (4) 
4.2591643333

>  <CNN_VS>  (4) 
2.1433799267

>  <CNNaffinity_variance>  (4) 
0.1051099300

$$$$
5
     RDKit          3D

 43 45  0  0  0  0  0  0  0  0999 V2000
   19.5113   70.7494   -1.8855 P   0  0  2  0  0  0  0  0  0  0  0  0
   19.7411   69.4262   -0.9834 O   0  0  0  0  0  0  0  0  0  0  0  0
   20.6397   71.0863   -2.8153 O   0  0  0  0  0  0  0  0  0  0  0  0
   19.1240   71.8921   -0.8075 O   0  0  0  0  0  0  0  0  0  0  0  0
   18.6908   73.1536   -1.2856 C   0  0  0  0  0  0  0  0  0  0  0  0
   20.3922   73.6287    0.3433 O   0  0  0  0  0  0  0  0  0  0  0  0
   20.3217   76.4463   -0.6799 O   0  0  0  0  0  0  0  0  0  0  0  0
   22.5379   75.4267   -1.8985 O   0  0  0  0  0  0  0  0  0  0  0  0
   20.1679   75.2222   -1.3963 C   0  0  1  0  0  0  0  0  0  0  0  0
   21.5058   74.5285   -1.5453 C   0  0  2  0  0  0  0  0  0  0  0  0
   19.4032   74.2505   -0.5061 C   0  0  1  0  0  0  0  0  0  0  0  0
   21.7031   73.9247   -0.1652 C   0  0  2  0  0  0  0  0  0  0  0  0
   20.8071   77.0830   -1.2284 H   0  0  0  0  0  0  0  0  0  0  0  0
   22.3671   75.7837   -2.7840 H   0  0  0  0  0  0  0  0  0  0  0  0
   22.0574   72.1909    2.0363 O   0  0  0  0  0  0  0  0  0  0  0  0
   24.6801   69.3073   -0.4229 O   0  0  0  0  0  0  0  0  0  0  0  0
   22.4734   72.7136   -0.2023 N   0  0  0  0  0  0  0  0  0  0  0  0
   23.3629   70.7564    0.8100 N   0  0  0  0  0  0  0  0  0  0  0  0
   22.5892   71.9145    0.9590 C   0  0  0  0  0  0  0  0  0  0  0  0
   23.1036   72.3290   -1.3807 C   0  0  0  0  0  0  0  0  0  0  0  0
   23.8389   71.2222   -1.5060 C   0  0  0  0  0  0  0  0  0  0  0  0
   24.0101   70.3320   -0.3397 C   0  0  0  0  0  0  0  0  0  0  0  0
   23.4580   70.1844    1.6059 H   0  0  0  0  0  0  0  0  0  0  0  0
   18.1023   70.4491   -2.6187 O   0  0  0  0  0  0  0  0  0  0  0  0
   17.7745   69.8332   -4.0769 P   0  0  2  0  0  0  0  0  0  0  0  0
   16.1607   69.7186   -4.0769 O   0  0  0  0  0  0  0  0  0  0  0  0
   18.4868   68.5458   -4.3754 O   0  0  0  0  0  0  0  0  0  0  0  0
   18.0980   71.0315   -5.1086 O   0  0  0  0  0  0  0  0  0  0  0  0
   19.3749   70.3493   -6.9850 O   0  0  0  0  0  0  0  0  0  0  0  0
   19.6927   74.4429   -7.4236 O   0  0  0  0  0  0  0  0  0  0  0  0
   18.0337   72.9480   -9.2294 O   0  0  0  0  0  0  0  0  0  0  0  0
   19.7667   73.2638   -4.7809 O   0  0  0  0  0  0  0  0  0  0  0  0
   19.0441   73.2160   -7.0781 C   0  0  1  0  0  0  0  0  0  0  0  0
   18.9640   72.3457   -8.3338 C   0  0  1  0  0  0  0  0  0  0  0  0
   19.8519   72.5141   -5.9881 C   0  0  2  0  0  0  0  0  0  0  0  0
   18.5256   70.9158   -7.9898 C   0  0  1  0  0  0  0  0  0  0  0  0
   19.3656   71.0820   -5.7583 C   0  0  1  0  0  0  0  0  0  0  0  0
   19.1845   74.8938   -8.1149 H   0  0  0  0  0  0  0  0  0  0  0  0
   18.3218   73.8505   -9.4381 H   0  0  0  0  0  0  0  0  0  0  0  0
   20.0777   74.1682   -4.9395 H   0  0  0  0  0  0  0  0  0  0  0  0
   17.4174   70.1752   -9.9728 O   0  0  0  0  0  0  0  0  0  0  0  0
   18.5909   69.9902   -9.2027 C   0  0  0  0  0  0  0  0  0  0  0  0
   17.4452   69.5926  -10.7484 H   0  0  0  0  0  0  0  0  0  0  0  0
 25 28  1  0
 25 24  1  0
 25 26  1  1
 25 27  2  0
  1  4  1  0
  1 24  1  0
  1  2  1  1
  1  3  2  0
  6 11  1  0
  6 12  1  0
 29 36  1  0
 29 37  1  0
  9  7  1  1
  7 13  1  0
 10  8  1  1
  8 14  1  0
 37 28  1  6
  4  5  1  0
 33 30  1  6
 30 38  1  0
 34 31  1  6
 31 39  1  0
 35 32  1  1
 32 40  1  0
 41 42  1  0
 41 43  1  0
 15 19  2  0
 16 22  2  0
 12 17  1  6
 17 19  1  0
 17 20  1  0
 18 19  1  0
 18 22  1  0
 18 23  1  0
  9 10  1  0
  9 11  1  0
 10 12  1  0
 11  5  1  6
 33 34  1  0
 33 35  1  0
 34 36  1  0
 35 37  1  0
 36 42  1  6
 20 21  2  0
 21 22  1  0
M  CHG  2   2  -1  26  -1
M  END
>  <COMPND>  (5) 
    8629 

>  <AUTHOR>  (5) 
    GENERATED BY OPEN BABEL 3.1.1

>  <MASTER>  (5) 
        0    0    0    0    0    0    0    0   58    0   58    0

>  <minimizedAffinity>  (5) 
-7.19135

>  <CNNscore>  (5) 
0.4980734587

>  <CNNaffinity>  (5) 
4.2280530930

>  <CNN_VS>  (5) 
2.1058809757

>  <CNNaffinity_variance>  (5) 
0.3928725421

$$$$
6
     RDKit          3D

 43 45  0  0  0  0  0  0  0  0999 V2000
   22.6498   72.8663   -4.0342 P   0  0  2  0  0  0  0  0  0  0  0  0
   24.1750   72.7358   -4.5579 O   0  0  0  0  0  0  0  0  0  0  0  0
   22.3568   74.1039   -3.2381 O   0  0  0  0  0  0  0  0  0  0  0  0
   22.3779   71.4627   -3.2765 O   0  0  0  0  0  0  0  0  0  0  0  0
   23.2574   71.0749   -2.2354 C   0  0  0  0  0  0  0  0  0  0  0  0
   22.8306   70.9317    0.1249 O   0  0  0  0  0  0  0  0  0  0  0  0
   20.3053   69.4911   -0.6090 O   0  0  0  0  0  0  0  0  0  0  0  0
   19.4156   72.0110   -0.0657 O   0  0  0  0  0  0  0  0  0  0  0  0
   20.9548   70.5711   -1.2777 C   0  0  1  0  0  0  0  0  0  0  0  0
   20.7472   71.8628   -0.5148 C   0  0  2  0  0  0  0  0  0  0  0  0
   22.4590   70.3649   -1.1507 C   0  0  1  0  0  0  0  0  0  0  0  0
   21.7370   71.7162    0.6284 C   0  0  2  0  0  0  0  0  0  0  0  0
   19.3434   69.6007   -0.6768 H   0  0  0  0  0  0  0  0  0  0  0  0
   18.8247   72.1006   -0.8295 H   0  0  0  0  0  0  0  0  0  0  0  0
   21.8436   72.5132    3.3360 O   0  0  0  0  0  0  0  0  0  0  0  0
   23.6893   76.5948    2.2521 O   0  0  0  0  0  0  0  0  0  0  0  0
   22.2410   72.9816    1.0822 N   0  0  0  0  0  0  0  0  0  0  0  0
   22.7627   74.5448    2.7941 N   0  0  0  0  0  0  0  0  0  0  0  0
   22.2495   73.2840    2.4638 C   0  0  0  0  0  0  0  0  0  0  0  0
   22.7201   73.9072    0.1615 C   0  0  0  0  0  0  0  0  0  0  0  0
   23.2050   75.1057    0.4926 C   0  0  0  0  0  0  0  0  0  0  0  0
   23.2493   75.4998    1.9156 C   0  0  0  0  0  0  0  0  0  0  0  0
   22.7782   74.7775    3.7509 H   0  0  0  0  0  0  0  0  0  0  0  0
   21.7854   72.7195   -5.3921 O   0  0  0  0  0  0  0  0  0  0  0  0
   20.4818   73.5213   -5.9126 P   0  0  2  0  0  0  0  0  0  0  0  0
   21.1031   74.8878   -6.5161 O   0  0  0  0  0  0  0  0  0  0  0  0
   19.4285   73.7304   -4.8634 O   0  0  0  0  0  0  0  0  0  0  0  0
   19.9829   72.6944   -7.2057 O   0  0  0  0  0  0  0  0  0  0  0  0
   19.0700   70.7787   -6.1505 O   0  0  0  0  0  0  0  0  0  0  0  0
   17.8055   70.0679  -10.0166 O   0  0  0  0  0  0  0  0  0  0  0  0
   15.8987   70.8771   -8.0273 O   0  0  0  0  0  0  0  0  0  0  0  0
   20.4263   71.2009   -9.5399 O   0  0  0  0  0  0  0  0  0  0  0  0
   18.1334   70.8717   -8.8800 C   0  0  1  0  0  0  0  0  0  0  0  0
   17.2251   70.4564   -7.7209 C   0  0  1  0  0  0  0  0  0  0  0  0
   19.6010   70.6505   -8.5189 C   0  0  2  0  0  0  0  0  0  0  0  0
   17.6923   71.0816   -6.3996 C   0  0  1  0  0  0  0  0  0  0  0  0
   19.9490   71.2701   -7.1642 C   0  0  1  0  0  0  0  0  0  0  0  0
   16.8750   70.2041  -10.2514 H   0  0  0  0  0  0  0  0  0  0  0  0
   15.6160   70.4757   -8.8640 H   0  0  0  0  0  0  0  0  0  0  0  0
   20.1965   70.8004  -10.3923 H   0  0  0  0  0  0  0  0  0  0  0  0
   15.9958   69.5672   -5.6665 O   0  0  0  0  0  0  0  0  0  0  0  0
   16.8974   70.5568   -5.2059 C   0  0  0  0  0  0  0  0  0  0  0  0
   15.4832   69.2238   -4.9175 H   0  0  0  0  0  0  0  0  0  0  0  0
 25 28  1  0
 25 24  1  0
 25 26  1  6
 25 27  2  0
  1  4  1  0
  1 24  1  0
  1  2  1  6
  1  3  2  0
  6 11  1  0
  6 12  1  0
 29 36  1  0
 29 37  1  0
  9  7  1  1
  7 13  1  0
 10  8  1  1
  8 14  1  0
 37 28  1  6
  4  5  1  0
 33 30  1  6
 30 38  1  0
 34 31  1  6
 31 39  1  0
 35 32  1  6
 32 40  1  0
 41 42  1  0
 41 43  1  0
 15 19  2  0
 16 22  2  0
 12 17  1  6
 17 19  1  0
 17 20  1  0
 18 19  1  0
 18 22  1  0
 18 23  1  0
  9 10  1  0
  9 11  1  0
 10 12  1  0
 11  5  1  6
 33 34  1  0
 33 35  1  0
 34 36  1  0
 35 37  1  0
 36 42  1  1
 20 21  2  0
 21 22  1  0
M  CHG  2   2  -1  26  -1
M  END
>  <COMPND>  (6) 
    8629 

>  <AUTHOR>  (6) 
    GENERATED BY OPEN BABEL 3.1.1

>  <MASTER>  (6) 
        0    0    0    0    0    0    0    0   58    0   58    0

>  <minimizedAffinity>  (6) 
-8.61604

>  <CNNscore>  (6) 
0.4861602187

>  <CNNaffinity>  (6) 
4.1458301544

>  <CNN_VS>  (6) 
2.0155377388

>  <CNNaffinity_variance>  (6) 
0.2881935239

$$$$
7
     RDKit          3D

 43 45  0  0  0  0  0  0  0  0999 V2000
   17.7397   74.7528   -3.8830 P   0  0  2  0  0  0  0  0  0  0  0  0
   16.3244   74.5584   -3.1237 O   0  0  0  0  0  0  0  0  0  0  0  0
   18.0021   76.1408   -4.3888 O   0  0  0  0  0  0  0  0  0  0  0  0
   17.7435   73.5846   -5.0025 O   0  0  0  0  0  0  0  0  0  0  0  0
   17.8177   73.9567   -6.3678 C   0  0  0  0  0  0  0  0  0  0  0  0
   19.3516   72.1235   -6.1223 O   0  0  0  0  0  0  0  0  0  0  0  0
   19.5833   72.1614   -9.1115 O   0  0  0  0  0  0  0  0  0  0  0  0
   17.8753   70.0811   -8.6740 O   0  0  0  0  0  0  0  0  0  0  0  0
   18.4434   72.4140   -8.2917 C   0  0  1  0  0  0  0  0  0  0  0  0
   17.9131   71.1180   -7.7148 C   0  0  2  0  0  0  0  0  0  0  0  0
   18.9166   73.1478   -7.0431 C   0  0  1  0  0  0  0  0  0  0  0  0
   18.9028   70.8431   -6.5954 C   0  0  2  0  0  0  0  0  0  0  0  0
   19.3060   71.6937   -9.9154 H   0  0  0  0  0  0  0  0  0  0  0  0
   17.2315   70.3027   -9.3648 H   0  0  0  0  0  0  0  0  0  0  0  0
   20.3567   69.6856   -4.4684 O   0  0  0  0  0  0  0  0  0  0  0  0
   16.5193   68.1080   -2.4618 O   0  0  0  0  0  0  0  0  0  0  0  0
   18.3090   70.1244   -5.5035 N   0  0  0  0  0  0  0  0  0  0  0  0
   18.4448   68.9012   -3.4709 N   0  0  0  0  0  0  0  0  0  0  0  0
   19.1285   69.5814   -4.4866 C   0  0  0  0  0  0  0  0  0  0  0  0
   16.9288   69.9642   -5.4484 C   0  0  0  0  0  0  0  0  0  0  0  0
   16.2923   69.3116   -4.4736 C   0  0  0  0  0  0  0  0  0  0  0  0
   17.0751   68.7141   -3.3725 C   0  0  0  0  0  0  0  0  0  0  0  0
   18.9952   68.5141   -2.7518 H   0  0  0  0  0  0  0  0  0  0  0  0
   18.8113   74.2187   -2.7970 O   0  0  0  0  0  0  0  0  0  0  0  0
   18.7809   72.9311   -1.8202 P   0  0  2  0  0  0  0  0  0  0  0  0
   17.7843   71.9101   -2.5831 O   0  0  0  0  0  0  0  0  0  0  0  0
   18.3857   73.2411   -0.4055 O   0  0  0  0  0  0  0  0  0  0  0  0
   20.2432   72.2658   -1.9758 O   0  0  0  0  0  0  0  0  0  0  0  0
   22.2865   72.5057   -0.7994 O   0  0  0  0  0  0  0  0  0  0  0  0
   23.7507   72.4471   -4.6599 O   0  0  0  0  0  0  0  0  0  0  0  0
   24.1567   70.1721   -2.9548 O   0  0  0  0  0  0  0  0  0  0  0  0
   21.2679   73.8170   -4.0779 O   0  0  0  0  0  0  0  0  0  0  0  0
   22.8678   72.0823   -3.5956 C   0  0  1  0  0  0  0  0  0  0  0  0
   23.6975   71.4362   -2.4844 C   0  0  1  0  0  0  0  0  0  0  0  0
   22.1623   73.3355   -3.0806 C   0  0  2  0  0  0  0  0  0  0  0  0
   22.8688   71.2613   -1.2046 C   0  0  1  0  0  0  0  0  0  0  0  0
   21.4075   73.0637   -1.7781 C   0  0  1  0  0  0  0  0  0  0  0  0
   24.2014   71.6558   -4.9918 H   0  0  0  0  0  0  0  0  0  0  0  0
   24.6781   70.2966   -3.7634 H   0  0  0  0  0  0  0  0  0  0  0  0
   21.7579   73.9855   -4.8973 H   0  0  0  0  0  0  0  0  0  0  0  0
   24.0471   69.4070   -0.2653 O   0  0  0  0  0  0  0  0  0  0  0  0
   23.7182   70.7649   -0.0366 C   0  0  0  0  0  0  0  0  0  0  0  0
   24.5879   69.0777    0.4701 H   0  0  0  0  0  0  0  0  0  0  0  0
 25 28  1  0
 25 24  1  0
 25 26  1  6
 25 27  2  0
  1  4  1  0
  1 24  1  0
  1  2  1  1
  1  3  2  0
  6 11  1  0
  6 12  1  0
 29 36  1  0
 29 37  1  0
  9  7  1  6
  7 13  1  0
 10  8  1  6
  8 14  1  0
 37 28  1  6
  4  5  1  0
 33 30  1  6
 30 38  1  0
 34 31  1  6
 31 39  1  0
 35 32  1  6
 32 40  1  0
 41 42  1  0
 41 43  1  0
 15 19  2  0
 16 22  2  0
 12 17  1  1
 17 19  1  0
 17 20  1  0
 18 19  1  0
 18 22  1  0
 18 23  1  0
  9 10  1  0
  9 11  1  0
 10 12  1  0
 11  5  1  1
 33 34  1  0
 33 35  1  0
 34 36  1  0
 35 37  1  0
 36 42  1  1
 20 21  2  0
 21 22  1  0
M  CHG  2   2  -1  26  -1
M  END
>  <COMPND>  (7) 
    8629 

>  <AUTHOR>  (7) 
    GENERATED BY OPEN BABEL 3.1.1

>  <MASTER>  (7) 
        0    0    0    0    0    0    0    0   58    0   58    0

>  <minimizedAffinity>  (7) 
-7.18842

>  <CNNscore>  (7) 
0.4696873724

>  <CNNaffinity>  (7) 
4.2102231979

>  <CNN_VS>  (7) 
1.9774886370

>  <CNNaffinity_variance>  (7) 
0.6977690458

$$$$
8
     RDKit          3D

 43 45  0  0  0  0  0  0  0  0999 V2000
   17.6654   72.9384   -2.4134 P   0  0  2  0  0  0  0  0  0  0  0  0
   17.3718   74.4669   -2.8548 O   0  0  0  0  0  0  0  0  0  0  0  0
   16.7465   71.9170   -3.0164 O   0  0  0  0  0  0  0  0  0  0  0  0
   17.6853   72.9981   -0.7966 O   0  0  0  0  0  0  0  0  0  0  0  0
   18.5248   73.9492   -0.1654 C   0  0  0  0  0  0  0  0  0  0  0  0
   19.5962   72.1196    0.9654 O   0  0  0  0  0  0  0  0  0  0  0  0
   19.9553   74.0009    3.2726 O   0  0  0  0  0  0  0  0  0  0  0  0
   22.4205   74.0127    2.1068 O   0  0  0  0  0  0  0  0  0  0  0  0
   20.0141   74.2687    1.8725 C   0  0  1  0  0  0  0  0  0  0  0  0
   21.3037   73.7312    1.2881 C   0  0  2  0  0  0  0  0  0  0  0  0
   18.9673   73.4014    1.1845 C   0  0  1  0  0  0  0  0  0  0  0  0
   21.0099   72.2438    1.1912 C   0  0  2  0  0  0  0  0  0  0  0  0
   20.6148   74.5436    3.7334 H   0  0  0  0  0  0  0  0  0  0  0  0
   22.5664   74.9711    2.1365 H   0  0  0  0  0  0  0  0  0  0  0  0
   19.9278   70.2148   -0.4491 O   0  0  0  0  0  0  0  0  0  0  0  0
   23.7959   69.9085   -2.9360 O   0  0  0  0  0  0  0  0  0  0  0  0
   21.7120   71.6163    0.1074 N   0  0  0  0  0  0  0  0  0  0  0  0
   21.8547   70.0641   -1.6862 N   0  0  0  0  0  0  0  0  0  0  0  0
   21.0784   70.6068   -0.6542 C   0  0  0  0  0  0  0  0  0  0  0  0
   23.0140   72.0032   -0.1912 C   0  0  0  0  0  0  0  0  0  0  0  0
   23.7410   71.4748   -1.1778 C   0  0  0  0  0  0  0  0  0  0  0  0
   23.1530   70.4142   -2.0212 C   0  0  0  0  0  0  0  0  0  0  0  0
   21.4341   69.3589   -2.2298 H   0  0  0  0  0  0  0  0  0  0  0  0
   19.2256   72.7449   -2.7890 O   0  0  0  0  0  0  0  0  0  0  0  0
   20.0468   73.1079   -4.1332 P   0  0  2  0  0  0  0  0  0  0  0  0
   21.3311   72.1268   -4.0598 O   0  0  0  0  0  0  0  0  0  0  0  0
   20.3867   74.5636   -4.2724 O   0  0  0  0  0  0  0  0  0  0  0  0
   19.1476   72.5132   -5.3344 O   0  0  0  0  0  0  0  0  0  0  0  0
   18.7262   70.1832   -5.4348 O   0  0  0  0  0  0  0  0  0  0  0  0
   17.9782   71.1594   -9.3766 O   0  0  0  0  0  0  0  0  0  0  0  0
   15.7888   70.4978   -7.6397 O   0  0  0  0  0  0  0  0  0  0  0  0
   20.1462   72.4485   -7.9562 O   0  0  0  0  0  0  0  0  0  0  0  0
   17.9923   71.3704   -7.9622 C   0  0  1  0  0  0  0  0  0  0  0  0
   17.1552   70.2713   -7.3050 C   0  0  1  0  0  0  0  0  0  0  0  0
   19.4354   71.3175   -7.4640 C   0  0  2  0  0  0  0  0  0  0  0  0
   17.3392   70.2710   -5.7814 C   0  0  1  0  0  0  0  0  0  0  0  0
   19.5043   71.2716   -5.9365 C   0  0  1  0  0  0  0  0  0  0  0  0
   17.0648   71.1922   -9.6994 H   0  0  0  0  0  0  0  0  0  0  0  0
   15.6864   70.4960   -8.6044 H   0  0  0  0  0  0  0  0  0  0  0  0
   20.0953   72.4661   -8.9241 H   0  0  0  0  0  0  0  0  0  0  0  0
   15.2538   69.3701   -5.0408 O   0  0  0  0  0  0  0  0  0  0  0  0
   16.6384   69.0858   -5.1209 C   0  0  0  0  0  0  0  0  0  0  0  0
   14.7949   68.6243   -4.6227 H   0  0  0  0  0  0  0  0  0  0  0  0
 25 28  1  0
 25 24  1  0
 25 26  1  1
 25 27  2  0
  1  4  1  0
  1 24  1  0
  1  2  1  6
  1  3  2  0
  6 11  1  0
  6 12  1  0
 29 36  1  0
 29 37  1  0
  9  7  1  1
  7 13  1  0
 10  8  1  1
  8 14  1  0
 37 28  1  1
  4  5  1  0
 33 30  1  6
 30 38  1  0
 34 31  1  1
 31 39  1  0
 35 32  1  1
 32 40  1  0
 41 42  1  0
 41 43  1  0
 15 19  2  0
 16 22  2  0
 12 17  1  6
 17 19  1  0
 17 20  1  0
 18 19  1  0
 18 22  1  0
 18 23  1  0
  9 10  1  0
  9 11  1  0
 10 12  1  0
 11  5  1  6
 33 34  1  0
 33 35  1  0
 34 36  1  0
 35 37  1  0
 36 42  1  1
 20 21  2  0
 21 22  1  0
M  CHG  2   2  -1  26  -1
M  END
>  <COMPND>  (8) 
    8629 

>  <AUTHOR>  (8) 
    GENERATED BY OPEN BABEL 3.1.1

>  <MASTER>  (8) 
        0    0    0    0    0    0    0    0   58    0   58    0

>  <minimizedAffinity>  (8) 
-7.72844

>  <CNNscore>  (8) 
0.4541297555

>  <CNNaffinity>  (8) 
4.0523490906

>  <CNN_VS>  (8) 
1.8402923346

>  <CNNaffinity_variance>  (8) 
0.8052872419

$$$$
9
     RDKit          3D

 43 45  0  0  0  0  0  0  0  0999 V2000
   19.5571   69.7582   -1.9832 P   0  0  2  0  0  0  0  0  0  0  0  0
   18.7776   71.1758   -1.9993 O   0  0  0  0  0  0  0  0  0  0  0  0
   19.9154   69.2474   -0.6186 O   0  0  0  0  0  0  0  0  0  0  0  0
   20.7978   69.9856   -2.9965 O   0  0  0  0  0  0  0  0  0  0  0  0
   21.1997   71.3132   -3.2860 C   0  0  0  0  0  0  0  0  0  0  0  0
   22.9032   72.5632   -2.1419 O   0  0  0  0  0  0  0  0  0  0  0  0
   24.6922   70.2049   -2.6204 O   0  0  0  0  0  0  0  0  0  0  0  0
   23.9523   69.8711   -0.0170 O   0  0  0  0  0  0  0  0  0  0  0  0
   23.2957   70.2337   -2.3297 C   0  0  1  0  0  0  0  0  0  0  0  0
   23.0693   70.5700   -0.8705 C   0  0  2  0  0  0  0  0  0  0  0  0
   22.6951   71.4450   -3.0322 C   0  0  1  0  0  0  0  0  0  0  0  0
   23.3044   72.0708   -0.8529 C   0  0  2  0  0  0  0  0  0  0  0  0
   25.0976   69.4395   -2.1827 H   0  0  0  0  0  0  0  0  0  0  0  0
   23.7629   68.9210   -0.0634 H   0  0  0  0  0  0  0  0  0  0  0  0
   23.6887   74.7530   -0.0551 O   0  0  0  0  0  0  0  0  0  0  0  0
   20.2876   74.5100    3.0456 O   0  0  0  0  0  0  0  0  0  0  0  0
   22.5332   72.7342    0.1604 N   0  0  0  0  0  0  0  0  0  0  0  0
   21.9948   74.6299    1.4881 N   0  0  0  0  0  0  0  0  0  0  0  0
   22.8073   74.0828    0.4868 C   0  0  0  0  0  0  0  0  0  0  0  0
   21.5179   72.0486    0.8183 C   0  0  0  0  0  0  0  0  0  0  0  0
   20.7529   72.5843    1.7718 C   0  0  0  0  0  0  0  0  0  0  0  0
   20.9741   73.9888    2.1722 C   0  0  0  0  0  0  0  0  0  0  0  0
   22.1677   75.5680    1.7324 H   0  0  0  0  0  0  0  0  0  0  0  0
   18.5721   68.7923   -2.8258 O   0  0  0  0  0  0  0  0  0  0  0  0
   17.4932   69.1251   -3.9825 P   0  0  2  0  0  0  0  0  0  0  0  0
   16.5805   70.2832   -3.3165 O   0  0  0  0  0  0  0  0  0  0  0  0
   16.7225   67.9313   -4.4670 O   0  0  0  0  0  0  0  0  0  0  0  0
   18.3420   69.8828   -5.1272 O   0  0  0  0  0  0  0  0  0  0  0  0
   18.9407   72.1035   -5.6988 O   0  0  0  0  0  0  0  0  0  0  0  0
   17.5180   70.8397   -9.3634 O   0  0  0  0  0  0  0  0  0  0  0  0
   20.3416   71.2061   -8.9883 O   0  0  0  0  0  0  0  0  0  0  0  0
   16.1954   69.9940   -6.9313 O   0  0  0  0  0  0  0  0  0  0  0  0
   18.1786   70.6980   -8.1029 C   0  0  1  0  0  0  0  0  0  0  0  0
   19.3585   71.6713   -8.0678 C   0  0  1  0  0  0  0  0  0  0  0  0
   17.1889   71.0123   -6.9825 C   0  0  2  0  0  0  0  0  0  0  0  0
   19.9527   71.7709   -6.6564 C   0  0  1  0  0  0  0  0  0  0  0  0
   17.8897   71.1379   -5.6286 C   0  0  1  0  0  0  0  0  0  0  0  0
   18.1408   70.6411  -10.0791 H   0  0  0  0  0  0  0  0  0  0  0  0
   19.9535   71.1473   -9.8755 H   0  0  0  0  0  0  0  0  0  0  0  0
   15.7589   69.9246   -7.7941 H   0  0  0  0  0  0  0  0  0  0  0  0
   22.2238   72.3457   -7.1260 O   0  0  0  0  0  0  0  0  0  0  0  0
   21.0274   72.8519   -6.5632 C   0  0  0  0  0  0  0  0  0  0  0  0
   22.9168   73.0231   -7.0740 H   0  0  0  0  0  0  0  0  0  0  0  0
 25 28  1  0
 25 24  1  0
 25 26  1  1
 25 27  2  0
  1  4  1  0
  1 24  1  0
  1  2  1  1
  1  3  2  0
  6 11  1  0
  6 12  1  0
 29 36  1  0
 29 37  1  0
  9  7  1  1
  7 13  1  0
 10  8  1  1
  8 14  1  0
 37 28  1  6
  4  5  1  0
 33 30  1  6
 30 38  1  0
 34 31  1  6
 31 39  1  0
 35 32  1  1
 32 40  1  0
 41 42  1  0
 41 43  1  0
 15 19  2  0
 16 22  2  0
 12 17  1  1
 17 19  1  0
 17 20  1  0
 18 19  1  0
 18 22  1  0
 18 23  1  0
  9 10  1  0
  9 11  1  0
 10 12  1  0
 11  5  1  1
 33 34  1  0
 33 35  1  0
 34 36  1  0
 35 37  1  0
 36 42  1  6
 20 21  2  0
 21 22  1  0
M  CHG  2   2  -1  26  -1
M  END
>  <COMPND>  (9) 
    8629 

>  <AUTHOR>  (9) 
    GENERATED BY OPEN BABEL 3.1.1

>  <MASTER>  (9) 
        0    0    0    0    0    0    0    0   58    0   58    0

>  <minimizedAffinity>  (9) 
-8.88753

>  <CNNscore>  (9) 
0.4451106191

>  <CNNaffinity>  (9) 
4.2055473328

>  <CNN_VS>  (9) 
1.8719338179

>  <CNNaffinity_variance>  (9) 
0.2791396677

$$$$
10
     RDKit          3D

 43 45  0  0  0  0  0  0  0  0999 V2000
   20.9210   75.3207   -2.5993 P   0  0  2  0  0  0  0  0  0  0  0  0
   22.3543   74.9554   -1.9439 O   0  0  0  0  0  0  0  0  0  0  0  0
   20.9445   76.4521   -3.5847 O   0  0  0  0  0  0  0  0  0  0  0  0
   19.9494   75.5221   -1.3213 O   0  0  0  0  0  0  0  0  0  0  0  0
   20.5264   75.5242   -0.0271 C   0  0  0  0  0  0  0  0  0  0  0  0
   19.7565   73.2583    0.1897 O   0  0  0  0  0  0  0  0  0  0  0  0
   19.4385   73.8438    3.1132 O   0  0  0  0  0  0  0  0  0  0  0  0
   21.7890   72.4635    3.0358 O   0  0  0  0  0  0  0  0  0  0  0  0
   20.4366   74.3049    2.2041 C   0  0  1  0  0  0  0  0  0  0  0  0
   21.4117   73.1909    1.8846 C   0  0  2  0  0  0  0  0  0  0  0  0
   19.7696   74.5405    0.8548 C   0  0  1  0  0  0  0  0  0  0  0  0
   20.6189   72.3521    0.8967 C   0  0  2  0  0  0  0  0  0  0  0  0
   19.8407   73.6867    3.9824 H   0  0  0  0  0  0  0  0  0  0  0  0
   22.2906   73.0402    3.6329 H   0  0  0  0  0  0  0  0  0  0  0  0
   19.7397   70.3258   -0.8638 O   0  0  0  0  0  0  0  0  0  0  0  0
   23.9431   69.8328   -2.6883 O   0  0  0  0  0  0  0  0  0  0  0  0
   21.4623   71.6773   -0.0492 N   0  0  0  0  0  0  0  0  0  0  0  0
   21.8333   70.0821   -1.7709 N   0  0  0  0  0  0  0  0  0  0  0  0
   20.9221   70.6736   -0.8867 C   0  0  0  0  0  0  0  0  0  0  0  0
   22.8088   72.0127   -0.1399 C   0  0  0  0  0  0  0  0  0  0  0  0
   23.6648   71.4382   -0.9875 C   0  0  0  0  0  0  0  0  0  0  0  0
   23.1809   70.3801   -1.8976 C   0  0  0  0  0  0  0  0  0  0  0  0
   21.4796   69.3799   -2.3639 H   0  0  0  0  0  0  0  0  0  0  0  0
   20.4296   73.9069   -3.2100 O   0  0  0  0  0  0  0  0  0  0  0  0
   20.7845   73.1727   -4.6056 P   0  0  2  0  0  0  0  0  0  0  0  0
   22.0451   72.2343   -4.2212 O   0  0  0  0  0  0  0  0  0  0  0  0
   21.0379   74.1127   -5.7484 O   0  0  0  0  0  0  0  0  0  0  0  0
   19.5667   72.1410   -4.8456 O   0  0  0  0  0  0  0  0  0  0  0  0
   19.4350   69.7748   -4.8617 O   0  0  0  0  0  0  0  0  0  0  0  0
   16.9793   70.5941   -8.0787 O   0  0  0  0  0  0  0  0  0  0  0  0
   15.8277   69.6737   -5.6140 O   0  0  0  0  0  0  0  0  0  0  0  0
   19.3656   72.1741   -7.6445 O   0  0  0  0  0  0  0  0  0  0  0  0
   17.5624   70.8232   -6.7931 C   0  0  1  0  0  0  0  0  0  0  0  0
   17.2242   69.6324   -5.8939 C   0  0  1  0  0  0  0  0  0  0  0  0
   19.0752   70.9662   -6.9494 C   0  0  2  0  0  0  0  0  0  0  0  0
   18.0321   69.6758   -4.5899 C   0  0  1  0  0  0  0  0  0  0  0  0
   19.7871   70.9492   -5.5955 C   0  0  1  0  0  0  0  0  0  0  0  0
   16.0187   70.5029   -7.9865 H   0  0  0  0  0  0  0  0  0  0  0  0
   15.3290   69.6462   -6.4457 H   0  0  0  0  0  0  0  0  0  0  0  0
   18.9095   72.1725   -8.4999 H   0  0  0  0  0  0  0  0  0  0  0  0
   17.8249   68.7864   -2.3820 O   0  0  0  0  0  0  0  0  0  0  0  0
   17.8284   68.4175   -3.7488 C   0  0  0  0  0  0  0  0  0  0  0  0
   17.6959   67.9955   -1.8346 H   0  0  0  0  0  0  0  0  0  0  0  0
 25 28  1  0
 25 24  1  0
 25 26  1  1
 25 27  2  0
  1  4  1  0
  1 24  1  0
  1  2  1  1
  1  3  2  0
  6 11  1  0
  6 12  1  0
 29 36  1  0
 29 37  1  0
  9  7  1  1
  7 13  1  0
 10  8  1  1
  8 14  1  0
 37 28  1  1
  4  5  1  0
 33 30  1  6
 30 38  1  0
 34 31  1  1
 31 39  1  0
 35 32  1  1
 32 40  1  0
 41 42  1  0
 41 43  1  0
 15 19  2  0
 16 22  2  0
 12 17  1  6
 17 19  1  0
 17 20  1  0
 18 19  1  0
 18 22  1  0
 18 23  1  0
  9 10  1  0
  9 11  1  0
 10 12  1  0
 11  5  1  6
 33 34  1  0
 33 35  1  0
 34 36  1  0
 35 37  1  0
 36 42  1  6
 20 21  2  0
 21 22  1  0
M  CHG  2   2  -1  26  -1
M  END
>  <COMPND>  (10) 
    8629 

>  <AUTHOR>  (10) 
    GENERATED BY OPEN BABEL 3.1.1

>  <MASTER>  (10) 
        0    0    0    0    0    0    0    0   58    0   58    0

>  <minimizedAffinity>  (10) 
-7.50891

>  <CNNscore>  (10) 
0.4300405085

>  <CNNaffinity>  (10) 
4.0313363075

>  <CNN_VS>  (10) 
1.7336379290

>  <CNNaffinity_variance>  (10) 
0.9937099218

$$$$
11
     RDKit          3D

 43 45  0  0  0  0  0  0  0  0999 V2000
   19.4563   70.0305   -2.2123 P   0  0  2  0  0  0  0  0  0  0  0  0
   19.9275   69.4338   -0.7842 O   0  0  0  0  0  0  0  0  0  0  0  0
   20.5664   70.2919   -3.1874 O   0  0  0  0  0  0  0  0  0  0  0  0
   18.5511   71.3123   -1.8181 O   0  0  0  0  0  0  0  0  0  0  0  0
   18.8544   72.5626   -2.4119 C   0  0  0  0  0  0  0  0  0  0  0  0
   20.0007   72.9206   -0.3306 O   0  0  0  0  0  0  0  0  0  0  0  0
   19.7325   75.8518   -0.9024 O   0  0  0  0  0  0  0  0  0  0  0  0
   22.3157   75.3417   -1.6122 O   0  0  0  0  0  0  0  0  0  0  0  0
   19.9599   74.7731   -1.8080 C   0  0  1  0  0  0  0  0  0  0  0  0
   21.3869   74.2796   -1.6902 C   0  0  2  0  0  0  0  0  0  0  0  0
   19.1656   73.5704   -1.3139 C   0  0  1  0  0  0  0  0  0  0  0  0
   21.3314   73.4565   -0.4144 C   0  0  2  0  0  0  0  0  0  0  0  0
   20.2294   76.6316   -1.1975 H   0  0  0  0  0  0  0  0  0  0  0  0
   22.3139   75.8350   -2.4473 H   0  0  0  0  0  0  0  0  0  0  0  0
   22.1191   72.0129    1.8819 O   0  0  0  0  0  0  0  0  0  0  0  0
   24.9464   69.3141   -0.5603 O   0  0  0  0  0  0  0  0  0  0  0  0
   22.2715   72.3714   -0.4214 N   0  0  0  0  0  0  0  0  0  0  0  0
   23.5261   70.6702    0.6640 N   0  0  0  0  0  0  0  0  0  0  0  0
   22.5995   71.7134    0.7869 C   0  0  0  0  0  0  0  0  0  0  0  0
   22.8573   71.9697   -1.6170 C   0  0  0  0  0  0  0  0  0  0  0  0
   23.7402   70.9738   -1.7170 C   0  0  0  0  0  0  0  0  0  0  0  0
   24.1370   70.2345   -0.5012 C   0  0  0  0  0  0  0  0  0  0  0  0
   23.7700   70.1975    1.4928 H   0  0  0  0  0  0  0  0  0  0  0  0
   18.3610   68.9523   -2.7131 O   0  0  0  0  0  0  0  0  0  0  0  0
   17.4305   68.9198   -4.0345 P   0  0  2  0  0  0  0  0  0  0  0  0
   16.2404   69.9555   -3.6758 O   0  0  0  0  0  0  0  0  0  0  0  0
   16.9612   67.5477   -4.4231 O   0  0  0  0  0  0  0  0  0  0  0  0
   18.3005   69.6744   -5.1654 O   0  0  0  0  0  0  0  0  0  0  0  0
   19.0110   71.8805   -5.6601 O   0  0  0  0  0  0  0  0  0  0  0  0
   17.4661   70.8427   -9.3462 O   0  0  0  0  0  0  0  0  0  0  0  0
   20.3109   71.0407   -9.0058 O   0  0  0  0  0  0  0  0  0  0  0  0
   16.1361   69.9734   -6.9264 O   0  0  0  0  0  0  0  0  0  0  0  0
   18.1369   70.6153   -8.1037 C   0  0  1  0  0  0  0  0  0  0  0  0
   19.3687   71.5213   -8.0510 C   0  0  1  0  0  0  0  0  0  0  0  0
   17.1830   70.9377   -6.9551 C   0  0  2  0  0  0  0  0  0  0  0  0
   19.9887   71.5322   -6.6473 C   0  0  1  0  0  0  0  0  0  0  0  0
   17.9099   70.9711   -5.6095 C   0  0  1  0  0  0  0  0  0  0  0  0
   18.0662   70.6394  -10.0797 H   0  0  0  0  0  0  0  0  0  0  0  0
   19.9068   71.0384   -9.8878 H   0  0  0  0  0  0  0  0  0  0  0  0
   15.6835   69.9621   -7.7837 H   0  0  0  0  0  0  0  0  0  0  0  0
   22.1836   72.1371   -7.3721 O   0  0  0  0  0  0  0  0  0  0  0  0
   21.1222   72.5489   -6.5306 C   0  0  0  0  0  0  0  0  0  0  0  0
   22.9121   72.7750   -7.3083 H   0  0  0  0  0  0  0  0  0  0  0  0
 25 28  1  0
 25 24  1  0
 25 26  1  1
 25 27  2  0
  1  4  1  0
  1 24  1  0
  1  2  1  1
  1  3  2  0
  6 11  1  0
  6 12  1  0
 29 36  1  0
 29 37  1  0
  9  7  1  1
  7 13  1  0
 10  8  1  1
  8 14  1  0
 37 28  1  6
  4  5  1  0
 33 30  1  6
 30 38  1  0
 34 31  1  6
 31 39  1  0
 35 32  1  1
 32 40  1  0
 41 42  1  0
 41 43  1  0
 15 19  2  0
 16 22  2  0
 12 17  1  6
 17 19  1  0
 17 20  1  0
 18 19  1  0
 18 22  1  0
 18 23  1  0
  9 10  1  0
  9 11  1  0
 10 12  1  0
 11  5  1  6
 33 34  1  0
 33 35  1  0
 34 36  1  0
 35 37  1  0
 36 42  1  6
 20 21  2  0
 21 22  1  0
M  CHG  2   2  -1  26  -1
M  END
>  <COMPND>  (11) 
    8629 

>  <AUTHOR>  (11) 
    GENERATED BY OPEN BABEL 3.1.1

>  <MASTER>  (11) 
        0    0    0    0    0    0    0    0   58    0   58    0

>  <minimizedAffinity>  (11) 
-8.21404

>  <CNNscore>  (11) 
0.4130370319

>  <CNNaffinity>  (11) 
4.2630858421

>  <CNN_VS>  (11) 
1.7608122826

>  <CNNaffinity_variance>  (11) 
0.3533352315

$$$$
12
     RDKit          3D

 43 45  0  0  0  0  0  0  0  0999 V2000
   20.6640   75.1918   -5.1517 P   0  0  2  0  0  0  0  0  0  0  0  0
   19.5661   74.6427   -4.0979 O   0  0  0  0  0  0  0  0  0  0  0  0
   20.7807   76.6860   -5.2244 O   0  0  0  0  0  0  0  0  0  0  0  0
   20.2789   74.4488   -6.5364 O   0  0  0  0  0  0  0  0  0  0  0  0
   19.0056   73.8364   -6.6437 C   0  0  0  0  0  0  0  0  0  0  0  0
   19.2636   71.5174   -7.2174 O   0  0  0  0  0  0  0  0  0  0  0  0
   17.9905   72.2178   -9.8403 O   0  0  0  0  0  0  0  0  0  0  0  0
   15.9276   71.0861   -8.4618 O   0  0  0  0  0  0  0  0  0  0  0  0
   17.7156   72.7319   -8.5382 C   0  0  1  0  0  0  0  0  0  0  0  0
   16.9554   71.7099   -7.7191 C   0  0  2  0  0  0  0  0  0  0  0  0
   19.0355   72.8268   -7.7829 C   0  0  1  0  0  0  0  0  0  0  0  0
   18.0573   70.7432   -7.3198 C   0  0  2  0  0  0  0  0  0  0  0  0
   17.1625   72.1485  -10.3418 H   0  0  0  0  0  0  0  0  0  0  0  0
   15.2511   71.7420   -8.6918 H   0  0  0  0  0  0  0  0  0  0  0  0
   20.0632   69.9251   -5.5073 O   0  0  0  0  0  0  0  0  0  0  0  0
   16.9542   68.3272   -2.5037 O   0  0  0  0  0  0  0  0  0  0  0  0
   17.8003   70.1112   -6.0566 N   0  0  0  0  0  0  0  0  0  0  0  0
   18.5135   69.1303   -4.0131 N   0  0  0  0  0  0  0  0  0  0  0  0
   18.8788   69.7385   -5.2209 C   0  0  0  0  0  0  0  0  0  0  0  0
   16.4906   69.8671   -5.6576 C   0  0  0  0  0  0  0  0  0  0  0  0
   16.1591   69.2850   -4.5032 C   0  0  0  0  0  0  0  0  0  0  0  0
   17.2266   68.8651   -3.5725 C   0  0  0  0  0  0  0  0  0  0  0  0
   19.2483   68.8618   -3.4150 H   0  0  0  0  0  0  0  0  0  0  0  0
   22.0165   74.4327   -4.6960 O   0  0  0  0  0  0  0  0  0  0  0  0
   22.4903   72.8996   -4.8906 P   0  0  2  0  0  0  0  0  0  0  0  0
   24.0424   72.9302   -4.4348 O   0  0  0  0  0  0  0  0  0  0  0  0
   22.2609   72.3551   -6.2708 O   0  0  0  0  0  0  0  0  0  0  0  0
   21.7368   72.0871   -3.7172 O   0  0  0  0  0  0  0  0  0  0  0  0
   22.7234   72.3911   -1.5839 O   0  0  0  0  0  0  0  0  0  0  0  0
   20.2116   69.2337   -0.7053 O   0  0  0  0  0  0  0  0  0  0  0  0
   19.5893   71.8578    0.2820 O   0  0  0  0  0  0  0  0  0  0  0  0
   21.5804   69.3237   -3.2543 O   0  0  0  0  0  0  0  0  0  0  0  0
   20.6037   70.4438   -1.3589 C   0  0  1  0  0  0  0  0  0  0  0  0
   20.8476   71.5096   -0.2886 C   0  0  1  0  0  0  0  0  0  0  0  0
   21.8774   70.1871   -2.1621 C   0  0  2  0  0  0  0  0  0  0  0  0
   21.5249   72.7501   -0.8864 C   0  0  1  0  0  0  0  0  0  0  0  0
   22.4972   71.4903   -2.6698 C   0  0  1  0  0  0  0  0  0  0  0  0
   19.4031   69.3896   -0.1938 H   0  0  0  0  0  0  0  0  0  0  0  0
   19.1719   71.0656    0.6554 H   0  0  0  0  0  0  0  0  0  0  0  0
   21.1890   68.5023   -2.9198 H   0  0  0  0  0  0  0  0  0  0  0  0
   23.0883   74.4364   -0.2376 O   0  0  0  0  0  0  0  0  0  0  0  0
   21.9201   73.7600    0.1888 C   0  0  0  0  0  0  0  0  0  0  0  0
   23.3514   75.0827    0.4368 H   0  0  0  0  0  0  0  0  0  0  0  0
 25 28  1  0
 25 24  1  0
 25 26  1  1
 25 27  2  0
  1  4  1  0
  1 24  1  0
  1  2  1  1
  1  3  2  0
  6 11  1  0
  6 12  1  0
 29 36  1  0
 29 37  1  0
  9  7  1  6
  7 13  1  0
 10  8  1  6
  8 14  1  0
 37 28  1  6
  4  5  1  0
 33 30  1  1
 30 38  1  0
 34 31  1  6
 31 39  1  0
 35 32  1  6
 32 40  1  0
 41 42  1  0
 41 43  1  0
 15 19  2  0
 16 22  2  0
 12 17  1  1
 17 19  1  0
 17 20  1  0
 18 19  1  0
 18 22  1  0
 18 23  1  0
  9 10  1  0
  9 11  1  0
 10 12  1  0
 11  5  1  1
 33 34  1  0
 33 35  1  0
 34 36  1  0
 35 37  1  0
 36 42  1  1
 20 21  2  0
 21 22  1  0
M  CHG  2   2  -1  26  -1
M  END
>  <COMPND>  (12) 
    8629 

>  <AUTHOR>  (12) 
    GENERATED BY OPEN BABEL 3.1.1

>  <MASTER>  (12) 
        0    0    0    0    0    0    0    0   58    0   58    0

>  <minimizedAffinity>  (12) 
-8.08851

>  <CNNscore>  (12) 
0.4072610438

>  <CNNaffinity>  (12) 
4.1264452934

>  <CNN_VS>  (12) 
1.6805404425

>  <CNNaffinity_variance>  (12) 
0.7186676860

$$$$
13
     RDKit          3D

 43 45  0  0  0  0  0  0  0  0999 V2000
   18.7843   72.1208   -1.7941 P   0  0  2  0  0  0  0  0  0  0  0  0
   19.2030   73.6833   -1.7677 O   0  0  0  0  0  0  0  0  0  0  0  0
   17.3476   71.8553   -2.1358 O   0  0  0  0  0  0  0  0  0  0  0  0
   19.2801   71.5615   -0.3590 O   0  0  0  0  0  0  0  0  0  0  0  0
   19.4348   72.4809    0.7081 C   0  0  0  0  0  0  0  0  0  0  0  0
   21.6382   71.5390    0.5302 O   0  0  0  0  0  0  0  0  0  0  0  0
   22.2619   72.9925    3.0776 O   0  0  0  0  0  0  0  0  0  0  0  0
   23.3871   74.6010    1.1846 O   0  0  0  0  0  0  0  0  0  0  0  0
   21.4341   73.3961    1.9880 C   0  0  1  0  0  0  0  0  0  0  0  0
   22.2855   73.8025    0.8032 C   0  0  2  0  0  0  0  0  0  0  0  0
   20.7205   72.1590    1.4574 C   0  0  1  0  0  0  0  0  0  0  0  0
   22.7067   72.4553    0.2411 C   0  0  2  0  0  0  0  0  0  0  0  0
   22.7278   73.7660    3.4333 H   0  0  0  0  0  0  0  0  0  0  0  0
   23.0674   75.4468    1.5356 H   0  0  0  0  0  0  0  0  0  0  0  0
   23.9954   70.4249   -1.2403 O   0  0  0  0  0  0  0  0  0  0  0  0
   23.4523   72.7169   -5.2018 O   0  0  0  0  0  0  0  0  0  0  0  0
   22.9153   72.4954   -1.1788 N   0  0  0  0  0  0  0  0  0  0  0  0
   23.7238   71.5677   -3.2116 N   0  0  0  0  0  0  0  0  0  0  0  0
   23.5745   71.4245   -1.8263 C   0  0  0  0  0  0  0  0  0  0  0  0
   22.4681   73.5875   -1.9144 C   0  0  0  0  0  0  0  0  0  0  0  0
   22.6194   73.7094   -3.2348 C   0  0  0  0  0  0  0  0  0  0  0  0
   23.2978   72.6343   -3.9872 C   0  0  0  0  0  0  0  0  0  0  0  0
   24.1805   70.8341   -3.6839 H   0  0  0  0  0  0  0  0  0  0  0  0
   19.8508   71.4760   -2.8235 O   0  0  0  0  0  0  0  0  0  0  0  0
   20.0524   69.9535   -3.3279 P   0  0  2  0  0  0  0  0  0  0  0  0
   18.9238   69.1374   -2.5047 O   0  0  0  0  0  0  0  0  0  0  0  0
   21.4476   69.4272   -3.1539 O   0  0  0  0  0  0  0  0  0  0  0  0
   19.5234   69.9550   -4.8528 O   0  0  0  0  0  0  0  0  0  0  0  0
   19.6489   71.5584   -6.5935 O   0  0  0  0  0  0  0  0  0  0  0  0
   15.7885   70.2249   -7.2018 O   0  0  0  0  0  0  0  0  0  0  0  0
   17.8539   69.4811   -9.0535 O   0  0  0  0  0  0  0  0  0  0  0  0
   16.8002   70.5384   -4.5077 O   0  0  0  0  0  0  0  0  0  0  0  0
   17.1687   70.1024   -6.8477 C   0  0  1  0  0  0  0  0  0  0  0  0
   18.0121   70.4931   -8.0630 C   0  0  1  0  0  0  0  0  0  0  0  0
   17.4654   71.0263   -5.6679 C   0  0  2  0  0  0  0  0  0  0  0  0
   19.4917   70.6443   -7.6850 C   0  0  1  0  0  0  0  0  0  0  0  0
   18.9681   71.1447   -5.4072 C   0  0  1  0  0  0  0  0  0  0  0  0
   15.5935   69.6405   -7.9500 H   0  0  0  0  0  0  0  0  0  0  0  0
   16.9152   69.3954   -9.2829 H   0  0  0  0  0  0  0  0  0  0  0  0
   15.8498   70.4682   -4.6855 H   0  0  0  0  0  0  0  0  0  0  0  0
   21.6912   70.9273   -8.5745 O   0  0  0  0  0  0  0  0  0  0  0  0
   20.3256   71.1859   -8.8440 C   0  0  0  0  0  0  0  0  0  0  0  0
   22.2340   71.2663   -9.3040 H   0  0  0  0  0  0  0  0  0  0  0  0
 25 28  1  0
 25 24  1  0
 25 26  1  1
 25 27  2  0
  1  4  1  0
  1 24  1  0
  1  2  1  1
  1  3  2  0
  6 11  1  0
  6 12  1  0
 29 36  1  0
 29 37  1  0
  9  7  1  1
  7 13  1  0
 10  8  1  1
  8 14  1  0
 37 28  1  6
  4  5  1  0
 33 30  1  6
 30 38  1  0
 34 31  1  6
 31 39  1  0
 35 32  1  1
 32 40  1  0
 41 42  1  0
 41 43  1  0
 15 19  2  0
 16 22  2  0
 12 17  1  6
 17 19  1  0
 17 20  1  0
 18 19  1  0
 18 22  1  0
 18 23  1  0
  9 10  1  0
  9 11  1  0
 10 12  1  0
 11  5  1  6
 33 34  1  0
 33 35  1  0
 34 36  1  0
 35 37  1  0
 36 42  1  6
 20 21  2  0
 21 22  1  0
M  CHG  2   2  -1  26  -1
M  END
>  <COMPND>  (13) 
    8629 

>  <AUTHOR>  (13) 
    GENERATED BY OPEN BABEL 3.1.1

>  <MASTER>  (13) 
        0    0    0    0    0    0    0    0   58    0   58    0

>  <minimizedAffinity>  (13) 
-7.92121

>  <CNNscore>  (13) 
0.3573069572

>  <CNNaffinity>  (13) 
3.8845717907

>  <CNN_VS>  (13) 
1.3879845142

>  <CNNaffinity_variance>  (13) 
0.7598097920

$$$$
14
     RDKit          3D

 43 45  0  0  0  0  0  0  0  0999 V2000
   21.2718   70.6143   -1.8459 P   0  0  2  0  0  0  0  0  0  0  0  0
   20.3160   69.8806   -0.7664 O   0  0  0  0  0  0  0  0  0  0  0  0
   22.1295   69.6930   -2.6626 O   0  0  0  0  0  0  0  0  0  0  0  0
   22.0642   71.7226   -0.9731 O   0  0  0  0  0  0  0  0  0  0  0  0
   22.1409   71.5490    0.4311 C   0  0  0  0  0  0  0  0  0  0  0  0
   21.7393   73.9119    0.2596 O   0  0  0  0  0  0  0  0  0  0  0  0
   22.3915   74.0453    3.1833 O   0  0  0  0  0  0  0  0  0  0  0  0
   19.6659   74.1324    3.1777 O   0  0  0  0  0  0  0  0  0  0  0  0
   21.7072   73.0256    2.4571 C   0  0  1  0  0  0  0  0  0  0  0  0
   20.3085   73.4831    2.0996 C   0  0  2  0  0  0  0  0  0  0  0  0
   22.3625   72.9051    1.0869 C   0  0  1  0  0  0  0  0  0  0  0  0
   20.5714   74.4149    0.9288 C   0  0  2  0  0  0  0  0  0  0  0  0
   21.9910   74.1403    4.0622 H   0  0  0  0  0  0  0  0  0  0  0  0
   19.5207   73.4982    3.8971 H   0  0  0  0  0  0  0  0  0  0  0  0
   19.8761   76.6592   -0.6389 O   0  0  0  0  0  0  0  0  0  0  0  0
   16.3577   74.4246   -2.6058 O   0  0  0  0  0  0  0  0  0  0  0  0
   19.4784   74.4472   -0.0016 N   0  0  0  0  0  0  0  0  0  0  0  0
   18.1249   75.5446   -1.6171 N   0  0  0  0  0  0  0  0  0  0  0  0
   19.2134   75.6246   -0.7391 C   0  0  0  0  0  0  0  0  0  0  0  0
   18.6830   73.3199   -0.1756 C   0  0  0  0  0  0  0  0  0  0  0  0
   17.6479   73.2603   -1.0160 C   0  0  0  0  0  0  0  0  0  0  0  0
   17.3036   74.4477   -1.8244 C   0  0  0  0  0  0  0  0  0  0  0  0
   17.9211   76.3531   -2.1412 H   0  0  0  0  0  0  0  0  0  0  0  0
   20.2322   71.5045   -2.7060 O   0  0  0  0  0  0  0  0  0  0  0  0
   20.4791   72.5736   -3.8930 P   0  0  2  0  0  0  0  0  0  0  0  0
   21.9829   72.2389   -4.3869 O   0  0  0  0  0  0  0  0  0  0  0  0
   20.2641   74.0032   -3.4881 O   0  0  0  0  0  0  0  0  0  0  0  0
   19.5323   72.0705   -5.0994 O   0  0  0  0  0  0  0  0  0  0  0  0
   18.7785   69.8247   -5.1687 O   0  0  0  0  0  0  0  0  0  0  0  0
   18.3465   70.7891   -9.1604 O   0  0  0  0  0  0  0  0  0  0  0  0
   16.0134   70.5017   -7.5106 O   0  0  0  0  0  0  0  0  0  0  0  0
   20.6189   71.7881   -7.6713 O   0  0  0  0  0  0  0  0  0  0  0  0
   18.3325   71.0351   -7.7517 C   0  0  1  0  0  0  0  0  0  0  0  0
   17.3166   70.0883   -7.1096 C   0  0  1  0  0  0  0  0  0  0  0  0
   19.7302   70.7868   -7.1876 C   0  0  2  0  0  0  0  0  0  0  0  0
   17.4349   70.1037   -5.5796 C   0  0  1  0  0  0  0  0  0  0  0  0
   19.7279   70.7739   -5.6579 C   0  0  1  0  0  0  0  0  0  0  0  0
   17.4621   70.9454   -9.5249 H   0  0  0  0  0  0  0  0  0  0  0  0
   15.9521   70.4880   -8.4787 H   0  0  0  0  0  0  0  0  0  0  0  0
   20.6116   71.7859   -8.6407 H   0  0  0  0  0  0  0  0  0  0  0  0
   15.1921   69.3596   -5.2261 O   0  0  0  0  0  0  0  0  0  0  0  0
   16.5411   69.0520   -4.9262 C   0  0  0  0  0  0  0  0  0  0  0  0
   14.6117   68.6983   -4.8169 H   0  0  0  0  0  0  0  0  0  0  0  0
 25 28  1  0
 25 24  1  0
 25 26  1  6
 25 27  2  0
  1  4  1  0
  1 24  1  0
  1  2  1  1
  1  3  2  0
  6 11  1  0
  6 12  1  0
 29 36  1  0
 29 37  1  0
  9  7  1  1
  7 13  1  0
 10  8  1  1
  8 14  1  0
 37 28  1  1
  4  5  1  0
 33 30  1  6
 30 38  1  0
 34 31  1  1
 31 39  1  0
 35 32  1  1
 32 40  1  0
 41 42  1  0
 41 43  1  0
 15 19  2  0
 16 22  2  0
 12 17  1  6
 17 19  1  0
 17 20  1  0
 18 19  1  0
 18 22  1  0
 18 23  1  0
  9 10  1  0
  9 11  1  0
 10 12  1  0
 11  5  1  6
 33 34  1  0
 33 35  1  0
 34 36  1  0
 35 37  1  0
 36 42  1  1
 20 21  2  0
 21 22  1  0
M  CHG  2   2  -1  26  -1
M  END
>  <COMPND>  (14) 
    8629 

>  <AUTHOR>  (14) 
    GENERATED BY OPEN BABEL 3.1.1

>  <MASTER>  (14) 
        0    0    0    0    0    0    0    0   58    0   58    0

>  <minimizedAffinity>  (14) 
-7.15742

>  <CNNscore>  (14) 
0.3280857801

>  <CNNaffinity>  (14) 
3.9147987366

>  <CNN_VS>  (14) 
1.2843898535

>  <CNNaffinity_variance>  (14) 
0.3649598062

$$$$
15
     RDKit          3D

 43 45  0  0  0  0  0  0  0  0999 V2000
   20.1818   70.5751   -1.2808 P   0  0  2  0  0  0  0  0  0  0  0  0
   20.1157   69.1279   -0.5605 O   0  0  0  0  0  0  0  0  0  0  0  0
   19.9875   71.7481   -0.3656 O   0  0  0  0  0  0  0  0  0  0  0  0
   19.1240   70.4513   -2.4988 O   0  0  0  0  0  0  0  0  0  0  0  0
   18.1236   71.4464   -2.6292 C   0  0  0  0  0  0  0  0  0  0  0  0
   16.6315   71.1120   -4.4827 O   0  0  0  0  0  0  0  0  0  0  0  0
   15.5185   68.8020   -2.9283 O   0  0  0  0  0  0  0  0  0  0  0  0
   17.1575   67.5728   -4.7280 O   0  0  0  0  0  0  0  0  0  0  0  0
   16.8640   69.2691   -3.0112 C   0  0  1  0  0  0  0  0  0  0  0  0
   17.4677   68.8984   -4.3497 C   0  0  2  0  0  0  0  0  0  0  0  0
   16.8287   70.7903   -3.0884 C   0  0  1  0  0  0  0  0  0  0  0  0
   16.8443   69.9311   -5.2733 C   0  0  2  0  0  0  0  0  0  0  0  0
   15.5154   67.8328   -2.8776 H   0  0  0  0  0  0  0  0  0  0  0  0
   17.5767   66.9536   -4.1103 H   0  0  0  0  0  0  0  0  0  0  0  0
   15.9193   70.5157   -7.8773 O   0  0  0  0  0  0  0  0  0  0  0  0
   20.2016   71.1752   -9.4482 O   0  0  0  0  0  0  0  0  0  0  0  0
   17.6956   70.2593   -6.3819 N   0  0  0  0  0  0  0  0  0  0  0  0
   18.0523   70.8438   -8.6573 N   0  0  0  0  0  0  0  0  0  0  0  0
   17.1305   70.5353   -7.6488 C   0  0  0  0  0  0  0  0  0  0  0  0
   19.0744   70.3053   -6.2070 C   0  0  0  0  0  0  0  0  0  0  0  0
   19.9399   70.5998   -7.1793 C   0  0  0  0  0  0  0  0  0  0  0  0
   19.4314   70.9009   -8.5331 C   0  0  0  0  0  0  0  0  0  0  0  0
   17.6816   71.0393   -9.5485 H   0  0  0  0  0  0  0  0  0  0  0  0
   21.6108   70.5403   -2.0357 O   0  0  0  0  0  0  0  0  0  0  0  0
   22.7495   71.6749   -2.2055 P   0  0  2  0  0  0  0  0  0  0  0  0
   23.7470   71.0374   -3.3082 O   0  0  0  0  0  0  0  0  0  0  0  0
   23.4185   72.0723   -0.9215 O   0  0  0  0  0  0  0  0  0  0  0  0
   22.0093   72.8845   -2.9762 O   0  0  0  0  0  0  0  0  0  0  0  0
   20.3481   73.1167   -4.6504 O   0  0  0  0  0  0  0  0  0  0  0  0
   23.1822   75.7073   -6.1693 O   0  0  0  0  0  0  0  0  0  0  0  0
   20.7776   76.7607   -5.0049 O   0  0  0  0  0  0  0  0  0  0  0  0
   24.0119   73.2362   -4.9104 O   0  0  0  0  0  0  0  0  0  0  0  0
   22.4392   75.0458   -5.1419 C   0  0  1  0  0  0  0  0  0  0  0  0
   20.9588   75.3846   -5.3268 C   0  0  1  0  0  0  0  0  0  0  0  0
   22.6642   73.5391   -5.2545 C   0  0  2  0  0  0  0  0  0  0  0  0
   20.0735   74.5056   -4.4330 C   0  0  1  0  0  0  0  0  0  0  0  0
   21.7002   72.7558   -4.3616 C   0  0  1  0  0  0  0  0  0  0  0  0
   23.0441   76.6644   -6.1031 H   0  0  0  0  0  0  0  0  0  0  0  0
   21.3424   77.3047   -5.5760 H   0  0  0  0  0  0  0  0  0  0  0  0
   24.6122   73.7380   -5.4829 H   0  0  0  0  0  0  0  0  0  0  0  0
   18.0708   73.5372   -5.3050 O   0  0  0  0  0  0  0  0  0  0  0  0
   18.5876   74.7162   -4.7157 C   0  0  0  0  0  0  0  0  0  0  0  0
   17.1257   73.6566   -5.4902 H   0  0  0  0  0  0  0  0  0  0  0  0
 25 28  1  0
 25 24  1  0
 25 26  1  6
 25 27  2  0
  1  4  1  0
  1 24  1  0
  1  2  1  1
  1  3  2  0
  6 11  1  0
  6 12  1  0
 29 36  1  0
 29 37  1  0
  9  7  1  6
  7 13  1  0
 10  8  1  6
  8 14  1  0
 37 28  1  1
  4  5  1  0
 33 30  1  6
 30 38  1  0
 34 31  1  1
 31 39  1  0
 35 32  1  1
 32 40  1  0
 41 42  1  0
 41 43  1  0
 15 19  2  0
 16 22  2  0
 12 17  1  6
 17 19  1  0
 17 20  1  0
 18 19  1  0
 18 22  1  0
 18 23  1  0
  9 10  1  0
  9 11  1  0
 10 12  1  0
 11  5  1  6
 33 34  1  0
 33 35  1  0
 34 36  1  0
 35 37  1  0
 36 42  1  6
 20 21  2  0
 21 22  1  0
M  CHG  2   2  -1  26  -1
M  END
>  <COMPND>  (15) 
    8629 

>  <AUTHOR>  (15) 
    GENERATED BY OPEN BABEL 3.1.1

>  <MASTER>  (15) 
        0    0    0    0    0    0    0    0   58    0   58    0

>  <minimizedAffinity>  (15) 
-7.11840

>  <CNNscore>  (15) 
0.3207346499

>  <CNNaffinity>  (15) 
4.0145187378

>  <CNN_VS>  (15) 
1.2875952721

>  <CNNaffinity_variance>  (15) 
0.6258578300

$$$$
16
     RDKit          3D

 43 45  0  0  0  0  0  0  0  0999 V2000
   20.9932   70.3211   -1.7765 P   0  0  2  0  0  0  0  0  0  0  0  0
   20.3316   69.3630   -0.6532 O   0  0  0  0  0  0  0  0  0  0  0  0
   22.2339   69.7777   -2.4221 O   0  0  0  0  0  0  0  0  0  0  0  0
   21.1580   71.7444   -1.0249 O   0  0  0  0  0  0  0  0  0  0  0  0
   19.9977   72.5229   -0.7894 C   0  0  0  0  0  0  0  0  0  0  0  0
   20.6432   72.6495    1.5217 O   0  0  0  0  0  0  0  0  0  0  0  0
   17.7113   72.6110    2.1488 O   0  0  0  0  0  0  0  0  0  0  0  0
   18.3366   75.2542    2.3925 O   0  0  0  0  0  0  0  0  0  0  0  0
   18.3920   73.2243    1.0553 C   0  0  1  0  0  0  0  0  0  0  0  0
   19.1221   74.4669    1.5207 C   0  0  2  0  0  0  0  0  0  0  0  0
   19.5430   72.3128    0.6484 C   0  0  1  0  0  0  0  0  0  0  0  0
   20.3430   73.8769    2.2059 C   0  0  2  0  0  0  0  0  0  0  0  0
   16.9715   73.1748    2.4262 H   0  0  0  0  0  0  0  0  0  0  0  0
   17.5726   75.6067    1.9101 H   0  0  0  0  0  0  0  0  0  0  0  0
   20.9717   75.8564    4.1202 O   0  0  0  0  0  0  0  0  0  0  0  0
   24.7497   77.1448    1.8163 O   0  0  0  0  0  0  0  0  0  0  0  0
   21.4852   74.7437    2.1314 N   0  0  0  0  0  0  0  0  0  0  0  0
   22.8524   76.4962    2.9716 N   0  0  0  0  0  0  0  0  0  0  0  0
   21.7095   75.7050    3.1443 C   0  0  0  0  0  0  0  0  0  0  0  0
   22.3687   74.6355    1.0630 C   0  0  0  0  0  0  0  0  0  0  0  0
   23.4533   75.3984    0.9122 C   0  0  0  0  0  0  0  0  0  0  0  0
   23.7601   76.4275    1.9265 C   0  0  0  0  0  0  0  0  0  0  0  0
   23.0288   77.1731    3.6647 H   0  0  0  0  0  0  0  0  0  0  0  0
   19.7666   70.5879   -2.7949 O   0  0  0  0  0  0  0  0  0  0  0  0
   18.8626   69.5639   -3.6592 P   0  0  2  0  0  0  0  0  0  0  0  0
   17.5501   69.3576   -2.7360 O   0  0  0  0  0  0  0  0  0  0  0  0
   19.5631   68.2898   -4.0332 O   0  0  0  0  0  0  0  0  0  0  0  0
   18.3448   70.4359   -4.9148 O   0  0  0  0  0  0  0  0  0  0  0  0
   19.2915   70.6041   -7.0810 O   0  0  0  0  0  0  0  0  0  0  0  0
   17.8301   74.4473   -6.6993 O   0  0  0  0  0  0  0  0  0  0  0  0
   16.5233   72.6028   -8.4707 O   0  0  0  0  0  0  0  0  0  0  0  0
   19.0073   73.1164   -4.4139 O   0  0  0  0  0  0  0  0  0  0  0  0
   17.8308   73.0292   -6.5138 C   0  0  1  0  0  0  0  0  0  0  0  0
   17.8035   72.3653   -7.8920 C   0  0  1  0  0  0  0  0  0  0  0  0
   19.0897   72.6265   -5.7480 C   0  0  2  0  0  0  0  0  0  0  0  0
   18.0708   70.8578   -7.7862 C   0  0  1  0  0  0  0  0  0  0  0  0
   19.2877   71.1097   -5.7444 C   0  0  1  0  0  0  0  0  0  0  0  0
   17.0331   74.7096   -7.1845 H   0  0  0  0  0  0  0  0  0  0  0  0
   16.3667   73.5583   -8.5314 H   0  0  0  0  0  0  0  0  0  0  0  0
   18.8823   74.0777   -4.4298 H   0  0  0  0  0  0  0  0  0  0  0  0
   18.3666   71.2214  -10.1291 O   0  0  0  0  0  0  0  0  0  0  0  0
   18.2044   70.2029   -9.1592 C   0  0  0  0  0  0  0  0  0  0  0  0
   18.4533   70.8193  -11.0080 H   0  0  0  0  0  0  0  0  0  0  0  0
 25 28  1  0
 25 24  1  0
 25 26  1  1
 25 27  2  0
  1  4  1  0
  1 24  1  0
  1  2  1  1
  1  3  2  0
  6 11  1  0
  6 12  1  0
 29 36  1  0
 29 37  1  0
  9  7  1  1
  7 13  1  0
 10  8  1  1
  8 14  1  0
 37 28  1  1
  4  5  1  0
 33 30  1  6
 30 38  1  0
 34 31  1  1
 31 39  1  0
 35 32  1  1
 32 40  1  0
 41 42  1  0
 41 43  1  0
 15 19  2  0
 16 22  2  0
 12 17  1  6
 17 19  1  0
 17 20  1  0
 18 19  1  0
 18 22  1  0
 18 23  1  0
  9 10  1  0
  9 11  1  0
 10 12  1  0
 11  5  1  6
 33 34  1  0
 33 35  1  0
 34 36  1  0
 35 37  1  0
 36 42  1  6
 20 21  2  0
 21 22  1  0
M  CHG  2   2  -1  26  -1
M  END
>  <COMPND>  (16) 
    8629 

>  <AUTHOR>  (16) 
    GENERATED BY OPEN BABEL 3.1.1

>  <MASTER>  (16) 
        0    0    0    0    0    0    0    0   58    0   58    0

>  <minimizedAffinity>  (16) 
-7.16087

>  <CNNscore>  (16) 
0.3165700734

>  <CNNaffinity>  (16) 
3.9123215675

>  <CNN_VS>  (16) 
1.2385239601

>  <CNNaffinity_variance>  (16) 
0.1116779000

$$$$
17
     RDKit          3D

 43 45  0  0  0  0  0  0  0  0999 V2000
   22.7014   70.7828   -2.8555 P   0  0  2  0  0  0  0  0  0  0  0  0
   24.2279   70.3430   -2.5493 O   0  0  0  0  0  0  0  0  0  0  0  0
   21.7374   69.6464   -3.0303 O   0  0  0  0  0  0  0  0  0  0  0  0
   22.8329   71.7925   -4.1129 O   0  0  0  0  0  0  0  0  0  0  0  0
   21.9071   72.8596   -4.2229 C   0  0  0  0  0  0  0  0  0  0  0  0
   20.6119   71.6368   -5.8356 O   0  0  0  0  0  0  0  0  0  0  0  0
   20.2602   74.2525   -7.2587 O   0  0  0  0  0  0  0  0  0  0  0  0
   17.8880   73.9673   -5.9441 O   0  0  0  0  0  0  0  0  0  0  0  0
   20.3177   73.9881   -5.8579 C   0  0  1  0  0  0  0  0  0  0  0  0
   19.0291   73.3438   -5.3911 C   0  0  2  0  0  0  0  0  0  0  0  0
   21.3310   72.8729   -5.6321 C   0  0  1  0  0  0  0  0  0  0  0  0
   19.2019   71.9118   -5.8684 C   0  0  2  0  0  0  0  0  0  0  0  0
   19.6197   74.9619   -7.4276 H   0  0  0  0  0  0  0  0  0  0  0  0
   17.8220   74.8756   -5.6103 H   0  0  0  0  0  0  0  0  0  0  0  0
   17.4337   69.9190   -6.8064 O   0  0  0  0  0  0  0  0  0  0  0  0
   16.6533   68.3471   -2.5447 O   0  0  0  0  0  0  0  0  0  0  0  0
   18.5230   70.9680   -5.0259 N   0  0  0  0  0  0  0  0  0  0  0  0
   17.0467   69.1378   -4.6837 N   0  0  0  0  0  0  0  0  0  0  0  0
   17.6553   70.0081   -5.5970 C   0  0  0  0  0  0  0  0  0  0  0  0
   18.7208   70.9999   -3.6498 C   0  0  0  0  0  0  0  0  0  0  0  0
   18.1319   70.1638   -2.7924 C   0  0  0  0  0  0  0  0  0  0  0  0
   17.2103   69.1306   -3.3075 C   0  0  0  0  0  0  0  0  0  0  0  0
   16.4377   68.4609   -5.0586 H   0  0  0  0  0  0  0  0  0  0  0  0
   22.3559   71.7753   -1.6272 O   0  0  0  0  0  0  0  0  0  0  0  0
   21.7514   71.4758   -0.1583 P   0  0  2  0  0  0  0  0  0  0  0  0
   23.0323   70.9304    0.6660 O   0  0  0  0  0  0  0  0  0  0  0  0
   20.5721   70.5467   -0.1558 O   0  0  0  0  0  0  0  0  0  0  0  0
   21.4553   72.9341    0.4667 O   0  0  0  0  0  0  0  0  0  0  0  0
   21.8118   73.6036    2.7120 O   0  0  0  0  0  0  0  0  0  0  0  0
   18.5873   76.0192    1.8072 O   0  0  0  0  0  0  0  0  0  0  0  0
   21.2009   77.1811    2.0657 O   0  0  0  0  0  0  0  0  0  0  0  0
   18.6933   73.3112    0.7897 O   0  0  0  0  0  0  0  0  0  0  0  0
   19.8021   75.3135    1.5400 C   0  0  1  0  0  0  0  0  0  0  0  0
   20.8860   75.8532    2.4753 C   0  0  1  0  0  0  0  0  0  0  0  0
   19.5768   73.8222    1.7821 C   0  0  2  0  0  0  0  0  0  0  0  0
   22.1407   74.9704    2.4369 C   0  0  1  0  0  0  0  0  0  0  0  0
   20.8932   73.0430    1.7719 C   0  0  1  0  0  0  0  0  0  0  0  0
   18.7234   76.9667    1.6549 H   0  0  0  0  0  0  0  0  0  0  0  0
   20.4001   77.7280    2.0939 H   0  0  0  0  0  0  0  0  0  0  0  0
   17.8637   73.8125    0.8065 H   0  0  0  0  0  0  0  0  0  0  0  0
   23.1374   74.4778    4.5519 O   0  0  0  0  0  0  0  0  0  0  0  0
   23.1734   75.3987    3.4772 C   0  0  0  0  0  0  0  0  0  0  0  0
   23.7898   74.7377    5.2216 H   0  0  0  0  0  0  0  0  0  0  0  0
 25 28  1  0
 25 24  1  0
 25 26  1  1
 25 27  2  0
  1  4  1  0
  1 24  1  0
  1  2  1  1
  1  3  2  0
  6 11  1  0
  6 12  1  0
 29 36  1  0
 29 37  1  0
  9  7  1  6
  7 13  1  0
 10  8  1  6
  8 14  1  0
 37 28  1  6
  4  5  1  0
 33 30  1  1
 30 38  1  0
 34 31  1  6
 31 39  1  0
 35 32  1  6
 32 40  1  0
 41 42  1  0
 41 43  1  0
 15 19  2  0
 16 22  2  0
 12 17  1  1
 17 19  1  0
 17 20  1  0
 18 19  1  0
 18 22  1  0
 18 23  1  0
  9 10  1  0
  9 11  1  0
 10 12  1  0
 11  5  1  1
 33 34  1  0
 33 35  1  0
 34 36  1  0
 35 37  1  0
 36 42  1  1
 20 21  2  0
 21 22  1  0
M  CHG  2   2  -1  26  -1
M  END
>  <COMPND>  (17) 
    8629 

>  <AUTHOR>  (17) 
    GENERATED BY OPEN BABEL 3.1.1

>  <MASTER>  (17) 
        0    0    0    0    0    0    0    0   58    0   58    0

>  <minimizedAffinity>  (17) 
-7.16450

>  <CNNscore>  (17) 
0.3079274297

>  <CNNaffinity>  (17) 
4.0266056061

>  <CNN_VS>  (17) 
1.2399022579

>  <CNNaffinity_variance>  (17) 
0.1257262081

$$$$
18
     RDKit          3D

 43 45  0  0  0  0  0  0  0  0999 V2000
   18.2516   74.8879   -0.9499 P   0  0  2  0  0  0  0  0  0  0  0  0
   19.0644   76.2533   -1.2537 O   0  0  0  0  0  0  0  0  0  0  0  0
   16.7639   75.0475   -0.8378 O   0  0  0  0  0  0  0  0  0  0  0  0
   18.9927   74.2761    0.3518 O   0  0  0  0  0  0  0  0  0  0  0  0
   19.1748   75.1121    1.4814 C   0  0  0  0  0  0  0  0  0  0  0  0
   20.8126   73.3663    1.6906 O   0  0  0  0  0  0  0  0  0  0  0  0
   22.1105   75.0902    3.7725 O   0  0  0  0  0  0  0  0  0  0  0  0
   23.6638   75.5389    1.5765 O   0  0  0  0  0  0  0  0  0  0  0  0
   21.4457   75.4739    2.5700 C   0  0  1  0  0  0  0  0  0  0  0  0
   22.3158   75.1700    1.3682 C   0  0  2  0  0  0  0  0  0  0  0  0
   20.2713   74.5261    2.3602 C   0  0  1  0  0  0  0  0  0  0  0  0
   22.1366   73.6685    1.2211 C   0  0  2  0  0  0  0  0  0  0  0  0
   22.8643   75.6815    3.9278 H   0  0  0  0  0  0  0  0  0  0  0  0
   23.7256   76.5029    1.6639 H   0  0  0  0  0  0  0  0  0  0  0  0
   22.6659   71.0070    0.4373 O   0  0  0  0  0  0  0  0  0  0  0  0
   22.5855   72.1148   -4.0357 O   0  0  0  0  0  0  0  0  0  0  0  0
   22.2588   73.2333   -0.1416 N   0  0  0  0  0  0  0  0  0  0  0  0
   22.6253   71.5608   -1.7893 N   0  0  0  0  0  0  0  0  0  0  0  0
   22.5267   71.8743   -0.4277 C   0  0  0  0  0  0  0  0  0  0  0  0
   22.1129   74.1496   -1.1775 C   0  0  0  0  0  0  0  0  0  0  0  0
   22.2110   73.8348   -2.4707 C   0  0  0  0  0  0  0  0  0  0  0  0
   22.4894   72.4360   -2.8552 C   0  0  0  0  0  0  0  0  0  0  0  0
   22.8119   70.6200   -2.0125 H   0  0  0  0  0  0  0  0  0  0  0  0
   18.7351   73.9050   -2.1387 O   0  0  0  0  0  0  0  0  0  0  0  0
   18.5307   72.3156   -2.3511 P   0  0  2  0  0  0  0  0  0  0  0  0
   16.9400   72.1140   -2.1352 O   0  0  0  0  0  0  0  0  0  0  0  0
   19.3893   71.4608   -1.4646 O   0  0  0  0  0  0  0  0  0  0  0  0
   18.7603   72.0819   -3.9315 O   0  0  0  0  0  0  0  0  0  0  0  0
   18.2019   69.7935   -4.1921 O   0  0  0  0  0  0  0  0  0  0  0  0
   18.8453   70.7707   -8.1521 O   0  0  0  0  0  0  0  0  0  0  0  0
   16.1667   70.3176   -7.2206 O   0  0  0  0  0  0  0  0  0  0  0  0
   20.5402   71.8968   -6.0932 O   0  0  0  0  0  0  0  0  0  0  0  0
   18.4212   71.0004   -6.8058 C   0  0  1  0  0  0  0  0  0  0  0  0
   17.3290   69.9839   -6.4670 C   0  0  1  0  0  0  0  0  0  0  0  0
   19.6177   70.8357   -5.8705 C   0  0  2  0  0  0  0  0  0  0  0  0
   17.0124   69.9906   -4.9654 C   0  0  1  0  0  0  0  0  0  0  0  0
   19.1875   70.8065   -4.4028 C   0  0  1  0  0  0  0  0  0  0  0  0
   18.0904   70.8742   -8.7512 H   0  0  0  0  0  0  0  0  0  0  0  0
   16.3803   70.3103   -8.1669 H   0  0  0  0  0  0  0  0  0  0  0  0
   20.8050   71.9044   -7.0258 H   0  0  0  0  0  0  0  0  0  0  0  0
   14.7405   69.2514   -4.9977 O   0  0  0  0  0  0  0  0  0  0  0  0
   16.0407   68.8771   -4.5808 C   0  0  0  0  0  0  0  0  0  0  0  0
   14.1114   68.5519   -4.7597 H   0  0  0  0  0  0  0  0  0  0  0  0
 25 28  1  0
 25 24  1  0
 25 26  1  1
 25 27  2  0
  1  4  1  0
  1 24  1  0
  1  2  1  6
  1  3  2  0
  6 11  1  0
  6 12  1  0
 29 36  1  0
 29 37  1  0
  9  7  1  1
  7 13  1  0
 10  8  1  1
  8 14  1  0
 37 28  1  6
  4  5  1  0
 33 30  1  6
 30 38  1  0
 34 31  1  6
 31 39  1  0
 35 32  1  1
 32 40  1  0
 41 42  1  0
 41 43  1  0
 15 19  2  0
 16 22  2  0
 12 17  1  6
 17 19  1  0
 17 20  1  0
 18 19  1  0
 18 22  1  0
 18 23  1  0
  9 10  1  0
  9 11  1  0
 10 12  1  0
 11  5  1  6
 33 34  1  0
 33 35  1  0
 34 36  1  0
 35 37  1  0
 36 42  1  6
 20 21  2  0
 21 22  1  0
M  CHG  2   2  -1  26  -1
M  END
>  <COMPND>  (18) 
    8629 

>  <AUTHOR>  (18) 
    GENERATED BY OPEN BABEL 3.1.1

>  <MASTER>  (18) 
        0    0    0    0    0    0    0    0   58    0   58    0

>  <minimizedAffinity>  (18) 
-6.17670

>  <CNNscore>  (18) 
0.3049201369

>  <CNNaffinity>  (18) 
3.9723210335

>  <CNN_VS>  (18) 
1.2112406492

>  <CNNaffinity_variance>  (18) 
0.3909595013

$$$$
19
     RDKit          3D

 43 45  0  0  0  0  0  0  0  0999 V2000
   22.2376   75.2840   -4.0542 P   0  0  2  0  0  0  0  0  0  0  0  0
   23.8121   75.0879   -4.3699 O   0  0  0  0  0  0  0  0  0  0  0  0
   21.7456   76.6990   -4.1394 O   0  0  0  0  0  0  0  0  0  0  0  0
   22.0342   74.5543   -2.6245 O   0  0  0  0  0  0  0  0  0  0  0  0
   20.7581   74.0238   -2.3116 C   0  0  0  0  0  0  0  0  0  0  0  0
   22.0563   72.7041   -0.7797 O   0  0  0  0  0  0  0  0  0  0  0  0
   19.7517   70.7859   -0.7716 O   0  0  0  0  0  0  0  0  0  0  0  0
   19.3942   72.1545    1.5599 O   0  0  0  0  0  0  0  0  0  0  0  0
   19.7395   72.2105   -0.8461 C   0  0  1  0  0  0  0  0  0  0  0  0
   20.0677   72.8106    0.5051 C   0  0  2  0  0  0  0  0  0  0  0  0
   20.9333   72.6467   -1.6863 C   0  0  1  0  0  0  0  0  0  0  0  0
   21.5748   72.6305    0.5721 C   0  0  2  0  0  0  0  0  0  0  0  0
   18.9981   70.4836   -0.2400 H   0  0  0  0  0  0  0  0  0  0  0  0
   18.4390   72.2987    1.4730 H   0  0  0  0  0  0  0  0  0  0  0  0
   21.8799   72.5418    3.3787 O   0  0  0  0  0  0  0  0  0  0  0  0
   24.0440   76.6102    3.4557 O   0  0  0  0  0  0  0  0  0  0  0  0
   22.2144   73.6529    1.3513 N   0  0  0  0  0  0  0  0  0  0  0  0
   22.9574   74.5675    3.4147 N   0  0  0  0  0  0  0  0  0  0  0  0
   22.3148   73.5121    2.7550 C   0  0  0  0  0  0  0  0  0  0  0  0
   22.7341   74.7795    0.7232 C   0  0  0  0  0  0  0  0  0  0  0  0
   23.3429   75.7777    1.3669 C   0  0  0  0  0  0  0  0  0  0  0  0
   23.4893   75.7085    2.8351 C   0  0  0  0  0  0  0  0  0  0  0  0
   23.0386   74.4914    4.3932 H   0  0  0  0  0  0  0  0  0  0  0  0
   21.5296   74.2623   -5.0876 O   0  0  0  0  0  0  0  0  0  0  0  0
   22.1020   72.9564   -5.8490 P   0  0  2  0  0  0  0  0  0  0  0  0
   22.5639   71.9918   -4.6350 O   0  0  0  0  0  0  0  0  0  0  0  0
   23.1810   73.2514   -6.8503 O   0  0  0  0  0  0  0  0  0  0  0  0
   20.7952   72.2377   -6.4660 O   0  0  0  0  0  0  0  0  0  0  0  0
   18.9030   73.4537   -7.2127 O   0  0  0  0  0  0  0  0  0  0  0  0
   17.0758   69.8517   -6.3537 O   0  0  0  0  0  0  0  0  0  0  0  0
   17.4492   70.6349   -9.0914 O   0  0  0  0  0  0  0  0  0  0  0  0
   19.1837   70.8470   -4.6374 O   0  0  0  0  0  0  0  0  0  0  0  0
   18.1360   70.7008   -6.8013 C   0  0  1  0  0  0  0  0  0  0  0  0
   17.6258   71.5197   -7.9886 C   0  0  1  0  0  0  0  0  0  0  0  0
   18.5571   71.6195   -5.6558 C   0  0  2  0  0  0  0  0  0  0  0  0
   18.6104   72.6387   -8.3538 C   0  0  1  0  0  0  0  0  0  0  0  0
   19.4977   72.7262   -6.1361 C   0  0  1  0  0  0  0  0  0  0  0  0
   16.8040   69.2655   -7.0762 H   0  0  0  0  0  0  0  0  0  0  0  0
   16.8256   69.9328   -8.8476 H   0  0  0  0  0  0  0  0  0  0  0  0
   18.5781   70.1501   -4.3417 H   0  0  0  0  0  0  0  0  0  0  0  0
   18.9203   74.6728   -9.5685 O   0  0  0  0  0  0  0  0  0  0  0  0
   18.0501   73.5646   -9.4312 C   0  0  0  0  0  0  0  0  0  0  0  0
   18.5765   75.2706  -10.2512 H   0  0  0  0  0  0  0  0  0  0  0  0
 25 28  1  0
 25 24  1  0
 25 26  1  1
 25 27  2  0
  1  4  1  0
  1 24  1  0
  1  2  1  6
  1  3  2  0
  6 11  1  0
  6 12  1  0
 29 36  1  0
 29 37  1  0
  9  7  1  1
  7 13  1  0
 10  8  1  1
  8 14  1  0
 37 28  1  6
  4  5  1  0
 33 30  1  1
 30 38  1  0
 34 31  1  6
 31 39  1  0
 35 32  1  1
 32 40  1  0
 41 42  1  0
 41 43  1  0
 15 19  2  0
 16 22  2  0
 12 17  1  1
 17 19  1  0
 17 20  1  0
 18 19  1  0
 18 22  1  0
 18 23  1  0
  9 10  1  0
  9 11  1  0
 10 12  1  0
 11  5  1  1
 33 34  1  0
 33 35  1  0
 34 36  1  0
 35 37  1  0
 36 42  1  6
 20 21  2  0
 21 22  1  0
M  CHG  2   2  -1  26  -1
M  END
>  <COMPND>  (19) 
    8629 

>  <AUTHOR>  (19) 
    GENERATED BY OPEN BABEL 3.1.1

>  <MASTER>  (19) 
        0    0    0    0    0    0    0    0   58    0   58    0

>  <minimizedAffinity>  (19) 
-6.93725

>  <CNNscore>  (19) 
0.2930138707

>  <CNNaffinity>  (19) 
3.9619803429

>  <CNN_VS>  (19) 
1.1609152555

>  <CNNaffinity_variance>  (19) 
0.0783469900

$$$$
20
     RDKit          3D

 43 45  0  0  0  0  0  0  0  0999 V2000
   19.8693   74.3711   -3.0238 P   0  0  2  0  0  0  0  0  0  0  0  0
   21.0873   74.9768   -3.8998 O   0  0  0  0  0  0  0  0  0  0  0  0
   18.5268   74.9829   -3.2970 O   0  0  0  0  0  0  0  0  0  0  0  0
   20.3952   74.4833   -1.4978 O   0  0  0  0  0  0  0  0  0  0  0  0
   19.6039   75.1925   -0.5604 C   0  0  0  0  0  0  0  0  0  0  0  0
   19.2794   72.8683   -0.0440 O   0  0  0  0  0  0  0  0  0  0  0  0
   18.6923   73.7652    2.7563 O   0  0  0  0  0  0  0  0  0  0  0  0
   21.2674   72.8868    2.9410 O   0  0  0  0  0  0  0  0  0  0  0  0
   19.6302   74.2908    1.8185 C   0  0  1  0  0  0  0  0  0  0  0  0
   20.8197   73.3625    1.6879 C   0  0  2  0  0  0  0  0  0  0  0  0
   19.0056   74.2044    0.4315 C   0  0  1  0  0  0  0  0  0  0  0  0
   20.2614   72.2568    0.8083 C   0  0  2  0  0  0  0  0  0  0  0  0
   19.0689   73.8101    3.6497 H   0  0  0  0  0  0  0  0  0  0  0  0
   21.6132   73.6273    3.4633 H   0  0  0  0  0  0  0  0  0  0  0  0
   19.9469   69.7939   -0.5384 O   0  0  0  0  0  0  0  0  0  0  0  0
   24.2028   70.0020   -2.2950 O   0  0  0  0  0  0  0  0  0  0  0  0
   21.2710   71.6441   -0.0083 N   0  0  0  0  0  0  0  0  0  0  0  0
   22.0662   69.8996   -1.4121 N   0  0  0  0  0  0  0  0  0  0  0  0
   21.0126   70.4053   -0.6400 C   0  0  0  0  0  0  0  0  0  0  0  0
   22.5009   72.2709   -0.1763 C   0  0  0  0  0  0  0  0  0  0  0  0
   23.4957   71.7748   -0.9149 C   0  0  0  0  0  0  0  0  0  0  0  0
   23.3072   70.4844   -1.6087 C   0  0  0  0  0  0  0  0  0  0  0  0
   21.9091   69.0375   -1.8614 H   0  0  0  0  0  0  0  0  0  0  0  0
   19.9595   72.7853   -3.3236 O   0  0  0  0  0  0  0  0  0  0  0  0
   20.8486   71.9550   -4.3881 P   0  0  2  0  0  0  0  0  0  0  0  0
   20.5558   70.4135   -3.9938 O   0  0  0  0  0  0  0  0  0  0  0  0
   22.3032   72.3263   -4.3973 O   0  0  0  0  0  0  0  0  0  0  0  0
   20.0959   72.1645   -5.8004 O   0  0  0  0  0  0  0  0  0  0  0  0
   18.3310   73.5734   -6.5192 O   0  0  0  0  0  0  0  0  0  0  0  0
   17.2081   70.0856   -8.4232 O   0  0  0  0  0  0  0  0  0  0  0  0
   18.2753   72.2618   -9.9638 O   0  0  0  0  0  0  0  0  0  0  0  0
   18.3377   69.9777   -5.7601 O   0  0  0  0  0  0  0  0  0  0  0  0
   18.1298   71.0497   -7.9070 C   0  0  1  0  0  0  0  0  0  0  0  0
   17.8669   72.3858   -8.6043 C   0  0  1  0  0  0  0  0  0  0  0  0
   17.9232   71.1803   -6.3991 C   0  0  2  0  0  0  0  0  0  0  0  0
   18.6298   73.5277   -7.9193 C   0  0  1  0  0  0  0  0  0  0  0  0
   18.6866   72.3756   -5.8259 C   0  0  1  0  0  0  0  0  0  0  0  0
   17.3344   69.9975   -9.3802 H   0  0  0  0  0  0  0  0  0  0  0  0
   17.7865   71.5371  -10.3846 H   0  0  0  0  0  0  0  0  0  0  0  0
   17.8469   69.2286   -6.1315 H   0  0  0  0  0  0  0  0  0  0  0  0
   19.0146   75.0975   -9.6790 O   0  0  0  0  0  0  0  0  0  0  0  0
   18.2599   74.8912   -8.4991 C   0  0  0  0  0  0  0  0  0  0  0  0
   18.7894   75.9615  -10.0592 H   0  0  0  0  0  0  0  0  0  0  0  0
 25 28  1  0
 25 24  1  0
 25 26  1  1
 25 27  2  0
  1  4  1  0
  1 24  1  0
  1  2  1  6
  1  3  2  0
  6 11  1  0
  6 12  1  0
 29 36  1  0
 29 37  1  0
  9  7  1  1
  7 13  1  0
 10  8  1  1
  8 14  1  0
 37 28  1  6
  4  5  1  0
 33 30  1  6
 30 38  1  0
 34 31  1  6
 31 39  1  0
 35 32  1  1
 32 40  1  0
 41 42  1  0
 41 43  1  0
 15 19  2  0
 16 22  2  0
 12 17  1  6
 17 19  1  0
 17 20  1  0
 18 19  1  0
 18 22  1  0
 18 23  1  0
  9 10  1  0
  9 11  1  0
 10 12  1  0
 11  5  1  6
 33 34  1  0
 33 35  1  0
 34 36  1  0
 35 37  1  0
 36 42  1  6
 20 21  2  0
 21 22  1  0
M  CHG  2   2  -1  26  -1
M  END
>  <COMPND>  (20) 
    8629 

>  <AUTHOR>  (20) 
    GENERATED BY OPEN BABEL 3.1.1

>  <MASTER>  (20) 
        0    0    0    0    0    0    0    0   58    0   58    0

>  <minimizedAffinity>  (20) 
-7.21912

>  <CNNscore>  (20) 
0.2912441194

>  <CNNaffinity>  (20) 
3.7446701527

>  <CNN_VS>  (20) 
1.0906131268

>  <CNNaffinity_variance>  (20) 
0.5804532766

$$$$
21
     RDKit          3D

 43 45  0  0  0  0  0  0  0  0999 V2000
   22.3581   70.5119   -2.4090 P   0  0  2  0  0  0  0  0  0  0  0  0
   23.7575   69.8598   -2.8926 O   0  0  0  0  0  0  0  0  0  0  0  0
   21.8426   70.0034   -1.0948 O   0  0  0  0  0  0  0  0  0  0  0  0
   21.3745   70.3054   -3.6770 O   0  0  0  0  0  0  0  0  0  0  0  0
   20.2526   69.4524   -3.5305 C   0  0  0  0  0  0  0  0  0  0  0  0
   18.9017   71.1585   -4.5494 O   0  0  0  0  0  0  0  0  0  0  0  0
   16.7099   70.2576   -2.7121 O   0  0  0  0  0  0  0  0  0  0  0  0
   16.0312   69.0731   -5.0728 O   0  0  0  0  0  0  0  0  0  0  0  0
   17.7139   69.4835   -3.3665 C   0  0  1  0  0  0  0  0  0  0  0  0
   17.3973   69.3507   -4.8415 C   0  0  2  0  0  0  0  0  0  0  0  0
   18.9979   70.3033   -3.3893 C   0  0  1  0  0  0  0  0  0  0  0  0
   17.8166   70.7091   -5.3773 C   0  0  2  0  0  0  0  0  0  0  0  0
   15.8804   69.7546   -2.6851 H   0  0  0  0  0  0  0  0  0  0  0  0
   15.8136   68.1986   -4.7140 H   0  0  0  0  0  0  0  0  0  0  0  0
   16.1022   70.5258   -7.6145 O   0  0  0  0  0  0  0  0  0  0  0  0
   19.6483   70.4711  -10.5578 O   0  0  0  0  0  0  0  0  0  0  0  0
   18.2650   70.6458   -6.7398 N   0  0  0  0  0  0  0  0  0  0  0  0
   17.8692   70.4989   -9.0782 N   0  0  0  0  0  0  0  0  0  0  0  0
   17.3220   70.5543   -7.7900 C   0  0  0  0  0  0  0  0  0  0  0  0
   19.6260   70.6751   -7.0236 C   0  0  0  0  0  0  0  0  0  0  0  0
   20.1317   70.6201   -8.2575 C   0  0  0  0  0  0  0  0  0  0  0  0
   19.2143   70.5235   -9.4112 C   0  0  0  0  0  0  0  0  0  0  0  0
   17.2313   70.4345   -9.8257 H   0  0  0  0  0  0  0  0  0  0  0  0
   22.6658   72.0985   -2.4425 O   0  0  0  0  0  0  0  0  0  0  0  0
   21.7174   73.3705   -2.1332 P   0  0  2  0  0  0  0  0  0  0  0  0
   22.6017   74.2508   -1.1033 O   0  0  0  0  0  0  0  0  0  0  0  0
   20.3513   73.0104   -1.6253 O   0  0  0  0  0  0  0  0  0  0  0  0
   21.7183   74.2234   -3.5034 O   0  0  0  0  0  0  0  0  0  0  0  0
   20.1135   74.2675   -5.2468 O   0  0  0  0  0  0  0  0  0  0  0  0
   23.5443   74.7391   -7.4958 O   0  0  0  0  0  0  0  0  0  0  0  0
   21.7747   76.9703   -7.1241 O   0  0  0  0  0  0  0  0  0  0  0  0
   23.5468   72.9572   -5.2145 O   0  0  0  0  0  0  0  0  0  0  0  0
   22.7036   74.9062   -6.3510 C   0  0  1  0  0  0  0  0  0  0  0  0
   21.4292   75.6281   -6.7931 C   0  0  1  0  0  0  0  0  0  0  0  0
   22.3701   73.5327   -5.7718 C   0  0  2  0  0  0  0  0  0  0  0  0
   20.3678   75.6073   -5.6849 C   0  0  1  0  0  0  0  0  0  0  0  0
   21.2692   73.6183   -4.7131 C   0  0  1  0  0  0  0  0  0  0  0  0
   23.7602   75.6076   -7.8681 H   0  0  0  0  0  0  0  0  0  0  0  0
   22.4459   76.9693   -7.8246 H   0  0  0  0  0  0  0  0  0  0  0  0
   24.2360   72.9082   -5.8946 H   0  0  0  0  0  0  0  0  0  0  0  0
   19.1026   77.5944   -6.0841 O   0  0  0  0  0  0  0  0  0  0  0  0
   19.0348   76.1823   -6.1587 C   0  0  0  0  0  0  0  0  0  0  0  0
   18.2610   77.9742   -6.3829 H   0  0  0  0  0  0  0  0  0  0  0  0
 25 28  1  0
 25 24  1  0
 25 26  1  1
 25 27  2  0
  1  4  1  0
  1 24  1  0
  1  2  1  6
  1  3  2  0
  6 11  1  0
  6 12  1  0
 29 36  1  0
 29 37  1  0
  9  7  1  1
  7 13  1  0
 10  8  1  1
  8 14  1  0
 37 28  1  1
  4  5  1  0
 33 30  1  6
 30 38  1  0
 34 31  1  1
 31 39  1  0
 35 32  1  1
 32 40  1  0
 41 42  1  0
 41 43  1  0
 15 19  2  0
 16 22  2  0
 12 17  1  6
 17 19  1  0
 17 20  1  0
 18 19  1  0
 18 22  1  0
 18 23  1  0
  9 10  1  0
  9 11  1  0
 10 12  1  0
 11  5  1  6
 33 34  1  0
 33 35  1  0
 34 36  1  0
 35 37  1  0
 36 42  1  6
 20 21  2  0
 21 22  1  0
M  CHG  2   2  -1  26  -1
M  END
>  <COMPND>  (21) 
    8629 

>  <AUTHOR>  (21) 
    GENERATED BY OPEN BABEL 3.1.1

>  <MASTER>  (21) 
        0    0    0    0    0    0    0    0   58    0   58    0

>  <minimizedAffinity>  (21) 
-7.01423

>  <CNNscore>  (21) 
0.8255652785

>  <CNNaffinity>  (21) 
4.5049400330

>  <CNN_VS>  (21) 
3.7191221714

>  <CNNaffinity_variance>  (21) 
0.3354216814

$$$$
22
     RDKit          3D

 43 45  0  0  0  0  0  0  0  0999 V2000
   22.7758   71.0402   -2.8700 P   0  0  2  0  0  0  0  0  0  0  0  0
   23.6636   72.0645   -3.7532 O   0  0  0  0  0  0  0  0  0  0  0  0
   23.5218   69.8527   -2.3364 O   0  0  0  0  0  0  0  0  0  0  0  0
   21.5093   70.7056   -3.8197 O   0  0  0  0  0  0  0  0  0  0  0  0
   20.7292   69.5594   -3.5273 C   0  0  0  0  0  0  0  0  0  0  0  0
   18.8504   70.8779   -4.2385 O   0  0  0  0  0  0  0  0  0  0  0  0
   17.2174   69.2407   -2.3297 O   0  0  0  0  0  0  0  0  0  0  0  0
   16.6365   68.1009   -4.7380 O   0  0  0  0  0  0  0  0  0  0  0  0
   18.3177   68.8434   -3.1463 C   0  0  1  0  0  0  0  0  0  0  0  0
   17.8877   68.7418   -4.5949 C   0  0  2  0  0  0  0  0  0  0  0  0
   19.3108   69.9980   -3.1896 C   0  0  1  0  0  0  0  0  0  0  0  0
   17.8484   70.2013   -5.0150 C   0  0  2  0  0  0  0  0  0  0  0  0
   16.5697   68.5191   -2.2867 H   0  0  0  0  0  0  0  0  0  0  0  0
   16.7133   67.1754   -4.4582 H   0  0  0  0  0  0  0  0  0  0  0  0
   15.9192   70.1006   -7.0757 O   0  0  0  0  0  0  0  0  0  0  0  0
   19.0863   70.8914  -10.3292 O   0  0  0  0  0  0  0  0  0  0  0  0
   18.1410   70.3779   -6.4095 N   0  0  0  0  0  0  0  0  0  0  0  0
   17.4977   70.4946   -8.6940 N   0  0  0  0  0  0  0  0  0  0  0  0
   17.0998   70.3076   -7.3641 C   0  0  0  0  0  0  0  0  0  0  0  0
   19.4484   70.6180   -6.8182 C   0  0  0  0  0  0  0  0  0  0  0  0
   19.8116   70.7929   -8.0905 C   0  0  0  0  0  0  0  0  0  0  0  0
   18.7841   70.7347   -9.1502 C   0  0  0  0  0  0  0  0  0  0  0  0
   16.7893   70.4495   -9.3765 H   0  0  0  0  0  0  0  0  0  0  0  0
   22.1364   71.9982   -1.7359 O   0  0  0  0  0  0  0  0  0  0  0  0
   21.6583   71.6812   -0.2246 P   0  0  2  0  0  0  0  0  0  0  0  0
   23.0201   71.1952    0.5012 O   0  0  0  0  0  0  0  0  0  0  0  0
   20.5234   70.7029   -0.1307 O   0  0  0  0  0  0  0  0  0  0  0  0
   21.3482   73.1289    0.4179 O   0  0  0  0  0  0  0  0  0  0  0  0
   22.7607   75.0316    0.4517 O   0  0  0  0  0  0  0  0  0  0  0  0
   20.8033   75.5992    4.0430 O   0  0  0  0  0  0  0  0  0  0  0  0
   20.1899   77.2977    1.8098 O   0  0  0  0  0  0  0  0  0  0  0  0
   21.5467   72.9284    3.2100 O   0  0  0  0  0  0  0  0  0  0  0  0
   20.9284   75.1945    2.6770 C   0  0  1  0  0  0  0  0  0  0  0  0
   21.3124   76.4208    1.8467 C   0  0  1  0  0  0  0  0  0  0  0  0
   22.0050   74.1159    2.5725 C   0  0  2  0  0  0  0  0  0  0  0  0
   21.7241   76.0197    0.4238 C   0  0  1  0  0  0  0  0  0  0  0  0
   22.3757   73.8269    1.1168 C   0  0  1  0  0  0  0  0  0  0  0  0
   20.1209   76.2837    4.1163 H   0  0  0  0  0  0  0  0  0  0  0  0
   19.9399   77.5430    2.7146 H   0  0  0  0  0  0  0  0  0  0  0  0
   21.3155   73.1245    4.1308 H   0  0  0  0  0  0  0  0  0  0  0  0
   21.1727   77.8477   -1.0126 O   0  0  0  0  0  0  0  0  0  0  0  0
   22.2609   77.2071   -0.3725 C   0  0  0  0  0  0  0  0  0  0  0  0
   21.4993   78.6057   -1.5230 H   0  0  0  0  0  0  0  0  0  0  0  0
 25 28  1  0
 25 24  1  0
 25 26  1  1
 25 27  2  0
  1  4  1  0
  1 24  1  0
  1  2  1  6
  1  3  2  0
  6 11  1  0
  6 12  1  0
 29 36  1  0
 29 37  1  0
  9  7  1  1
  7 13  1  0
 10  8  1  1
  8 14  1  0
 37 28  1  6
  4  5  1  0
 33 30  1  1
 30 38  1  0
 34 31  1  6
 31 39  1  0
 35 32  1  6
 32 40  1  0
 41 42  1  0
 41 43  1  0
 15 19  2  0
 16 22  2  0
 12 17  1  6
 17 19  1  0
 17 20  1  0
 18 19  1  0
 18 22  1  0
 18 23  1  0
  9 10  1  0
  9 11  1  0
 10 12  1  0
 11  5  1  6
 33 34  1  0
 33 35  1  0
 34 36  1  0
 35 37  1  0
 36 42  1  6
 20 21  2  0
 21 22  1  0
M  CHG  2   2  -1  26  -1
M  END
>  <COMPND>  (22) 
    8629 

>  <AUTHOR>  (22) 
    GENERATED BY OPEN BABEL 3.1.1

>  <MASTER>  (22) 
        0    0    0    0    0    0    0    0   58    0   58    0

>  <minimizedAffinity>  (22) 
-7.70635

>  <CNNscore>  (22) 
0.7512161136

>  <CNNaffinity>  (22) 
4.7029399872

>  <CNN_VS>  (22) 
3.5329244137

>  <CNNaffinity_variance>  (22) 
0.0460865386

$$$$
23
     RDKit          3D

 43 45  0  0  0  0  0  0  0  0999 V2000
   20.6304   70.3870   -1.4917 P   0  0  2  0  0  0  0  0  0  0  0  0
   22.1110   70.0054   -2.0206 O   0  0  0  0  0  0  0  0  0  0  0  0
   19.9315   69.3017   -0.7267 O   0  0  0  0  0  0  0  0  0  0  0  0
   19.8682   70.9146   -2.8178 O   0  0  0  0  0  0  0  0  0  0  0  0
   20.4283   72.0029   -3.5316 C   0  0  0  0  0  0  0  0  0  0  0  0
   20.0163   70.3505   -5.2268 O   0  0  0  0  0  0  0  0  0  0  0  0
   21.2060   72.3090   -7.1607 O   0  0  0  0  0  0  0  0  0  0  0  0
   18.5283   72.6154   -7.5761 O   0  0  0  0  0  0  0  0  0  0  0  0
   20.3914   72.5536   -6.0153 C   0  0  1  0  0  0  0  0  0  0  0  0
   18.9533   72.1754   -6.3023 C   0  0  2  0  0  0  0  0  0  0  0  0
   20.7773   71.5445   -4.9409 C   0  0  1  0  0  0  0  0  0  0  0  0
   18.9977   70.6608   -6.1917 C   0  0  2  0  0  0  0  0  0  0  0  0
   20.9780   72.9417   -7.8605 H   0  0  0  0  0  0  0  0  0  0  0  0
   18.5167   73.5850   -7.5961 H   0  0  0  0  0  0  0  0  0  0  0  0
   16.6720   70.4844   -7.7849 O   0  0  0  0  0  0  0  0  0  0  0  0
   14.2669   68.5197   -4.3795 O   0  0  0  0  0  0  0  0  0  0  0  0
   17.7499   70.1073   -5.7469 N   0  0  0  0  0  0  0  0  0  0  0  0
   15.4764   69.5061   -6.0880 N   0  0  0  0  0  0  0  0  0  0  0  0
   16.6422   70.0667   -6.6254 C   0  0  0  0  0  0  0  0  0  0  0  0
   17.6336   69.6120   -4.4527 C   0  0  0  0  0  0  0  0  0  0  0  0
   16.5145   69.0817   -3.9551 C   0  0  0  0  0  0  0  0  0  0  0  0
   15.3110   69.0016   -4.8079 C   0  0  0  0  0  0  0  0  0  0  0  0
   14.6917   69.4676   -6.6817 H   0  0  0  0  0  0  0  0  0  0  0  0
   20.8830   71.7456   -0.6530 O   0  0  0  0  0  0  0  0  0  0  0  0
   22.1582   72.2396    0.2088 P   0  0  2  0  0  0  0  0  0  0  0  0
   23.1537   72.8435   -0.9144 O   0  0  0  0  0  0  0  0  0  0  0  0
   22.7701   71.1722    1.0692 O   0  0  0  0  0  0  0  0  0  0  0  0
   21.6279   73.5302    1.0199 O   0  0  0  0  0  0  0  0  0  0  0  0
   22.5917   73.8828    3.1562 O   0  0  0  0  0  0  0  0  0  0  0  0
   19.3131   76.3704    3.4928 O   0  0  0  0  0  0  0  0  0  0  0  0
   21.9326   77.5095    3.1950 O   0  0  0  0  0  0  0  0  0  0  0  0
   19.0653   73.8324    2.1230 O   0  0  0  0  0  0  0  0  0  0  0  0
   20.3913   75.7205    2.8143 C   0  0  1  0  0  0  0  0  0  0  0  0
   21.7010   76.1344    3.4882 C   0  0  1  0  0  0  0  0  0  0  0  0
   20.1965   74.2079    2.9013 C   0  0  2  0  0  0  0  0  0  0  0  0
   22.8738   75.2775    2.9928 C   0  0  1  0  0  0  0  0  0  0  0  0
   21.4392   73.4504    2.4304 C   0  0  1  0  0  0  0  0  0  0  0  0
   19.4305   77.3311    3.4409 H   0  0  0  0  0  0  0  0  0  0  0  0
   21.1846   78.0394    3.5124 H   0  0  0  0  0  0  0  0  0  0  0  0
   18.2851   74.3185    2.4311 H   0  0  0  0  0  0  0  0  0  0  0  0
   24.7225   76.7660    3.2680 O   0  0  0  0  0  0  0  0  0  0  0  0
   24.1592   75.5661    3.7652 C   0  0  0  0  0  0  0  0  0  0  0  0
   25.5412   76.9624    3.7506 H   0  0  0  0  0  0  0  0  0  0  0  0
 25 28  1  0
 25 24  1  0
 25 26  1  6
 25 27  2  0
  1  4  1  0
  1 24  1  0
  1  2  1  6
  1  3  2  0
  6 11  1  0
  6 12  1  0
 29 36  1  0
 29 37  1  0
  9  7  1  6
  7 13  1  0
 10  8  1  6
  8 14  1  0
 37 28  1  6
  4  5  1  0
 33 30  1  1
 30 38  1  0
 34 31  1  6
 31 39  1  0
 35 32  1  6
 32 40  1  0
 41 42  1  0
 41 43  1  0
 15 19  2  0
 16 22  2  0
 12 17  1  1
 17 19  1  0
 17 20  1  0
 18 19  1  0
 18 22  1  0
 18 23  1  0
  9 10  1  0
  9 11  1  0
 10 12  1  0
 11  5  1  1
 33 34  1  0
 33 35  1  0
 34 36  1  0
 35 37  1  0
 36 42  1  1
 20 21  2  0
 21 22  1  0
M  CHG  2   2  -1  26  -1
M  END
>  <COMPND>  (23) 
    8629 

>  <AUTHOR>  (23) 
    GENERATED BY OPEN BABEL 3.1.1

>  <MASTER>  (23) 
        0    0    0    0    0    0    0    0   58    0   58    0

>  <minimizedAffinity>  (23) 
-7.59294

>  <CNNscore>  (23) 
0.6756573319

>  <CNNaffinity>  (23) 
4.4166765213

>  <CNN_VS>  (23) 
2.9841599464

>  <CNNaffinity_variance>  (23) 
0.1808361113

$$$$
24
     RDKit          3D

 43 45  0  0  0  0  0  0  0  0999 V2000
   19.9152   74.9402   -4.9281 P   0  0  2  0  0  0  0  0  0  0  0  0
   19.6961   75.2892   -3.3636 O   0  0  0  0  0  0  0  0  0  0  0  0
   20.1512   76.1271   -5.8152 O   0  0  0  0  0  0  0  0  0  0  0  0
   18.6353   74.0248   -5.3048 O   0  0  0  0  0  0  0  0  0  0  0  0
   18.1464   74.0605   -6.6343 C   0  0  0  0  0  0  0  0  0  0  0  0
   19.4082   72.0157   -6.6608 O   0  0  0  0  0  0  0  0  0  0  0  0
   19.1079   72.0881   -9.6433 O   0  0  0  0  0  0  0  0  0  0  0  0
   17.2135   70.2732   -8.8990 O   0  0  0  0  0  0  0  0  0  0  0  0
   18.1826   72.4872   -8.6334 C   0  0  1  0  0  0  0  0  0  0  0  0
   17.5757   71.2707   -7.9660 C   0  0  2  0  0  0  0  0  0  0  0  0
   18.9744   73.1140   -7.4926 C   0  0  1  0  0  0  0  0  0  0  0  0
   18.6962   70.8269   -7.0411 C   0  0  2  0  0  0  0  0  0  0  0  0
   18.6254   71.6851  -10.3827 H   0  0  0  0  0  0  0  0  0  0  0  0
   16.4976   70.6034   -9.4640 H   0  0  0  0  0  0  0  0  0  0  0  0
   20.3397   69.7862   -4.9931 O   0  0  0  0  0  0  0  0  0  0  0  0
   16.7028   68.3598   -2.5479 O   0  0  0  0  0  0  0  0  0  0  0  0
   18.2053   70.1787   -5.8577 N   0  0  0  0  0  0  0  0  0  0  0  0
   18.5274   69.0770   -3.7772 N   0  0  0  0  0  0  0  0  0  0  0  0
   19.1149   69.6906   -4.8909 C   0  0  0  0  0  0  0  0  0  0  0  0
   16.8359   70.0327   -5.6650 C   0  0  0  0  0  0  0  0  0  0  0  0
   16.2917   69.4439   -4.5980 C   0  0  0  0  0  0  0  0  0  0  0  0
   17.1725   68.9067   -3.5409 C   0  0  0  0  0  0  0  0  0  0  0  0
   19.1417   68.7289   -3.0906 H   0  0  0  0  0  0  0  0  0  0  0  0
   21.1285   73.8726   -4.8958 O   0  0  0  0  0  0  0  0  0  0  0  0
   22.6055   73.9635   -4.2451 P   0  0  2  0  0  0  0  0  0  0  0  0
   22.7786   75.5423   -3.9369 O   0  0  0  0  0  0  0  0  0  0  0  0
   23.6915   73.3766   -5.0995 O   0  0  0  0  0  0  0  0  0  0  0  0
   22.4543   73.2786   -2.7915 O   0  0  0  0  0  0  0  0  0  0  0  0
   23.0661   71.0555   -2.2435 O   0  0  0  0  0  0  0  0  0  0  0  0
   19.9890   71.5785    0.4600 O   0  0  0  0  0  0  0  0  0  0  0  0
   22.7041   71.5261    1.3947 O   0  0  0  0  0  0  0  0  0  0  0  0
   19.7742   72.6888   -2.2047 O   0  0  0  0  0  0  0  0  0  0  0  0
   21.1110   71.9801   -0.3307 C   0  0  1  0  0  0  0  0  0  0  0  0
   22.3161   71.1323    0.0814 C   0  0  1  0  0  0  0  0  0  0  0  0
   20.7831   71.7665   -1.8072 C   0  0  2  0  0  0  0  0  0  0  0  0
   23.4832   71.3154   -0.8980 C   0  0  1  0  0  0  0  0  0  0  0  0
   22.0228   71.9241   -2.6896 C   0  0  1  0  0  0  0  0  0  0  0  0
   20.1905   71.7120    1.3987 H   0  0  0  0  0  0  0  0  0  0  0  0
   21.9581   71.4060    2.0032 H   0  0  0  0  0  0  0  0  0  0  0  0
   18.9947   72.5788   -1.6388 H   0  0  0  0  0  0  0  0  0  0  0  0
   24.1029   69.1600   -0.0740 O   0  0  0  0  0  0  0  0  0  0  0  0
   24.6376   70.3621   -0.5969 C   0  0  0  0  0  0  0  0  0  0  0  0
   24.8262   68.5435    0.1221 H   0  0  0  0  0  0  0  0  0  0  0  0
 25 28  1  0
 25 24  1  0
 25 26  1  1
 25 27  2  0
  1  4  1  0
  1 24  1  0
  1  2  1  1
  1  3  2  0
  6 11  1  0
  6 12  1  0
 29 36  1  0
 29 37  1  0
  9  7  1  6
  7 13  1  0
 10  8  1  6
  8 14  1  0
 37 28  1  1
  4  5  1  0
 33 30  1  1
 30 38  1  0
 34 31  1  1
 31 39  1  0
 35 32  1  6
 32 40  1  0
 41 42  1  0
 41 43  1  0
 15 19  2  0
 16 22  2  0
 12 17  1  1
 17 19  1  0
 17 20  1  0
 18 19  1  0
 18 22  1  0
 18 23  1  0
  9 10  1  0
  9 11  1  0
 10 12  1  0
 11  5  1  1
 33 34  1  0
 33 35  1  0
 34 36  1  0
 35 37  1  0
 36 42  1  1
 20 21  2  0
 21 22  1  0
M  CHG  2   2  -1  26  -1
M  END
>  <COMPND>  (24) 
    8629 

>  <AUTHOR>  (24) 
    GENERATED BY OPEN BABEL 3.1.1

>  <MASTER>  (24) 
        0    0    0    0    0    0    0    0   58    0   58    0

>  <minimizedAffinity>  (24) 
-7.46803

>  <CNNscore>  (24) 
0.5494161844

>  <CNNaffinity>  (24) 
4.4975724220

>  <CNN_VS>  (24) 
2.4710390568

>  <CNNaffinity_variance>  (24) 
0.4684020579

$$$$
25
     RDKit          3D

 43 45  0  0  0  0  0  0  0  0999 V2000
   23.2523   71.1097   -2.9220 P   0  0  2  0  0  0  0  0  0  0  0  0
   23.8627   72.2297   -3.9172 O   0  0  0  0  0  0  0  0  0  0  0  0
   24.1249   69.9077   -2.7092 O   0  0  0  0  0  0  0  0  0  0  0  0
   21.7817   70.8120   -3.5276 O   0  0  0  0  0  0  0  0  0  0  0  0
   20.8658   71.8875   -3.6385 C   0  0  0  0  0  0  0  0  0  0  0  0
   18.5689   71.6230   -4.2930 O   0  0  0  0  0  0  0  0  0  0  0  0
   18.3354   69.6937   -2.0095 O   0  0  0  0  0  0  0  0  0  0  0  0
   18.5734   68.0388   -4.1639 O   0  0  0  0  0  0  0  0  0  0  0  0
   19.4351   69.9214   -2.8893 C   0  0  1  0  0  0  0  0  0  0  0  0
   19.1502   69.3258   -4.2523 C   0  0  2  0  0  0  0  0  0  0  0  0
   19.4878   71.4124   -3.1985 C   0  0  1  0  0  0  0  0  0  0  0  0
   18.2031   70.3510   -4.8524 C   0  0  2  0  0  0  0  0  0  0  0  0
   18.2817   68.7482   -1.7974 H   0  0  0  0  0  0  0  0  0  0  0  0
   19.2145   67.4229   -3.7762 H   0  0  0  0  0  0  0  0  0  0  0  0
   16.0700   69.8571   -6.6367 O   0  0  0  0  0  0  0  0  0  0  0  0
   18.7241   70.6546  -10.3192 O   0  0  0  0  0  0  0  0  0  0  0  0
   18.3086   70.4229   -6.2825 N   0  0  0  0  0  0  0  0  0  0  0  0
   17.3932   70.2548   -8.4689 N   0  0  0  0  0  0  0  0  0  0  0  0
   17.1775   70.1556   -7.0884 C   0  0  0  0  0  0  0  0  0  0  0  0
   19.5234   70.7557   -6.8719 C   0  0  0  0  0  0  0  0  0  0  0  0
   19.7130   70.8448   -8.1900 C   0  0  0  0  0  0  0  0  0  0  0  0
   18.5818   70.5808   -9.1026 C   0  0  0  0  0  0  0  0  0  0  0  0
   16.6195   70.0724   -9.0501 H   0  0  0  0  0  0  0  0  0  0  0  0
   22.9292   71.9524   -1.5809 O   0  0  0  0  0  0  0  0  0  0  0  0
   22.4504   71.4707   -0.1141 P   0  0  2  0  0  0  0  0  0  0  0  0
   23.7090   70.6070    0.4220 O   0  0  0  0  0  0  0  0  0  0  0  0
   21.1436   70.7317   -0.1051 O   0  0  0  0  0  0  0  0  0  0  0  0
   22.4659   72.8130    0.7820 O   0  0  0  0  0  0  0  0  0  0  0  0
   20.4010   73.7918    0.1539 O   0  0  0  0  0  0  0  0  0  0  0  0
   21.4549   76.3724    3.2003 O   0  0  0  0  0  0  0  0  0  0  0  0
   19.3274   74.4874    3.6111 O   0  0  0  0  0  0  0  0  0  0  0  0
   23.4838   75.3529    1.4049 O   0  0  0  0  0  0  0  0  0  0  0  0
   21.3694   75.1105    2.5328 C   0  0  1  0  0  0  0  0  0  0  0  0
   19.8906   74.7724    2.3337 C   0  0  1  0  0  0  0  0  0  0  0  0
   22.0845   75.2085    1.1865 C   0  0  2  0  0  0  0  0  0  0  0  0
   19.7186   73.5715    1.3938 C   0  0  1  0  0  0  0  0  0  0  0  0
   21.8081   73.9858    0.3098 C   0  0  1  0  0  0  0  0  0  0  0  0
   21.0031   76.3168    4.0561 H   0  0  0  0  0  0  0  0  0  0  0  0
   19.4432   75.2535    4.1950 H   0  0  0  0  0  0  0  0  0  0  0  0
   23.6456   76.1304    1.9608 H   0  0  0  0  0  0  0  0  0  0  0  0
   17.5928   72.8664    2.2262 O   0  0  0  0  0  0  0  0  0  0  0  0
   18.2515   73.3151    1.0562 C   0  0  0  0  0  0  0  0  0  0  0  0
   16.6579   72.6995    2.0265 H   0  0  0  0  0  0  0  0  0  0  0  0
 25 28  1  0
 25 24  1  0
 25 26  1  1
 25 27  2  0
  1  4  1  0
  1 24  1  0
  1  2  1  6
  1  3  2  0
  6 11  1  0
  6 12  1  0
 29 36  1  0
 29 37  1  0
  9  7  1  1
  7 13  1  0
 10  8  1  1
  8 14  1  0
 37 28  1  1
  4  5  1  0
 33 30  1  6
 30 38  1  0
 34 31  1  1
 31 39  1  0
 35 32  1  1
 32 40  1  0
 41 42  1  0
 41 43  1  0
 15 19  2  0
 16 22  2  0
 12 17  1  6
 17 19  1  0
 17 20  1  0
 18 19  1  0
 18 22  1  0
 18 23  1  0
  9 10  1  0
  9 11  1  0
 10 12  1  0
 11  5  1  6
 33 34  1  0
 33 35  1  0
 34 36  1  0
 35 37  1  0
 36 42  1  6
 20 21  2  0
 21 22  1  0
M  CHG  2   2  -1  26  -1
M  END
>  <COMPND>  (25) 
    8629 

>  <AUTHOR>  (25) 
    GENERATED BY OPEN BABEL 3.1.1

>  <MASTER>  (25) 
        0    0    0    0    0    0    0    0   58    0   58    0

>  <minimizedAffinity>  (25) 
-7.86278

>  <CNNscore>  (25) 
0.5457935333

>  <CNNaffinity>  (25) 
4.4091095924

>  <CNN_VS>  (25) 
2.4064633846

>  <CNNaffinity_variance>  (25) 
0.0310517140

$$$$
26
     RDKit          3D

 43 45  0  0  0  0  0  0  0  0999 V2000
   22.5909   71.4349   -2.9632 P   0  0  2  0  0  0  0  0  0  0  0  0
   22.5426   69.8740   -2.5403 O   0  0  0  0  0  0  0  0  0  0  0  0
   23.8730   71.8785   -3.6042 O   0  0  0  0  0  0  0  0  0  0  0  0
   22.1748   72.2171   -1.6094 O   0  0  0  0  0  0  0  0  0  0  0  0
   22.8390   71.8819   -0.4035 C   0  0  0  0  0  0  0  0  0  0  0  0
   22.4019   72.6534    1.8298 O   0  0  0  0  0  0  0  0  0  0  0  0
   19.5108   72.1073    1.2519 O   0  0  0  0  0  0  0  0  0  0  0  0
   19.6801   74.8103    0.9339 O   0  0  0  0  0  0  0  0  0  0  0  0
   20.5275   72.5996    0.3807 C   0  0  1  0  0  0  0  0  0  0  0  0
   20.8454   74.0440    0.7070 C   0  0  2  0  0  0  0  0  0  0  0  0
   21.8320   71.8982    0.7383 C   0  0  1  0  0  0  0  0  0  0  0  0
   21.7047   73.9040    1.9521 C   0  0  2  0  0  0  0  0  0  0  0  0
   18.6680   72.5405    1.0424 H   0  0  0  0  0  0  0  0  0  0  0  0
   19.1674   74.8703    0.1127 H   0  0  0  0  0  0  0  0  0  0  0  0
   22.8495   74.7418    4.3945 O   0  0  0  0  0  0  0  0  0  0  0  0
   25.3801   77.9800    2.3085 O   0  0  0  0  0  0  0  0  0  0  0  0
   22.6657   74.9634    2.0763 N   0  0  0  0  0  0  0  0  0  0  0  0
   24.1087   76.3533    3.3538 N   0  0  0  0  0  0  0  0  0  0  0  0
   23.1780   75.3066    3.3492 C   0  0  0  0  0  0  0  0  0  0  0  0
   23.0909   75.6496    0.9439 C   0  0  0  0  0  0  0  0  0  0  0  0
   23.9782   76.6464    0.9655 C   0  0  0  0  0  0  0  0  0  0  0  0
   24.5620   77.0669    2.2556 C   0  0  0  0  0  0  0  0  0  0  0  0
   24.4789   76.6100    4.2295 H   0  0  0  0  0  0  0  0  0  0  0  0
   21.2806   71.5996   -3.8954 O   0  0  0  0  0  0  0  0  0  0  0  0
   20.7867   72.8262   -4.8252 P   0  0  2  0  0  0  0  0  0  0  0  0
   21.9902   72.9896   -5.8939 O   0  0  0  0  0  0  0  0  0  0  0  0
   20.4574   74.0794   -4.0669 O   0  0  0  0  0  0  0  0  0  0  0  0
   19.5600   72.2210   -5.6820 O   0  0  0  0  0  0  0  0  0  0  0  0
   18.6136   70.0503   -5.5893 O   0  0  0  0  0  0  0  0  0  0  0  0
   18.1457   70.8023   -9.6225 O   0  0  0  0  0  0  0  0  0  0  0  0
   15.8475   70.8231   -7.9003 O   0  0  0  0  0  0  0  0  0  0  0  0
   20.5399   71.6870   -8.2569 O   0  0  0  0  0  0  0  0  0  0  0  0
   18.1956   71.1346   -8.2323 C   0  0  1  0  0  0  0  0  0  0  0  0
   17.1218   70.3219   -7.5062 C   0  0  1  0  0  0  0  0  0  0  0  0
   19.5832   70.7993   -7.6885 C   0  0  2  0  0  0  0  0  0  0  0  0
   17.2873   70.4207   -5.9837 C   0  0  1  0  0  0  0  0  0  0  0  0
   19.6261   70.8805   -6.1615 C   0  0  1  0  0  0  0  0  0  0  0  0
   17.2675   71.0132   -9.9741 H   0  0  0  0  0  0  0  0  0  0  0  0
   15.7560   70.7554   -8.8638 H   0  0  0  0  0  0  0  0  0  0  0  0
   20.5030   71.6260   -9.2237 H   0  0  0  0  0  0  0  0  0  0  0  0
   16.6423   69.5286   -3.8631 O   0  0  0  0  0  0  0  0  0  0  0  0
   16.3263   69.4937   -5.2426 C   0  0  0  0  0  0  0  0  0  0  0  0
   16.0384   68.9434   -3.3787 H   0  0  0  0  0  0  0  0  0  0  0  0
 25 28  1  0
 25 24  1  0
 25 26  1  6
 25 27  2  0
  1  4  1  0
  1 24  1  0
  1  2  1  1
  1  3  2  0
  6 11  1  0
  6 12  1  0
 29 36  1  0
 29 37  1  0
  9  7  1  1
  7 13  1  0
 10  8  1  1
  8 14  1  0
 37 28  1  6
  4  5  1  0
 33 30  1  6
 30 38  1  0
 34 31  1  1
 31 39  1  0
 35 32  1  6
 32 40  1  0
 41 42  1  0
 41 43  1  0
 15 19  2  0
 16 22  2  0
 12 17  1  6
 17 19  1  0
 17 20  1  0
 18 19  1  0
 18 22  1  0
 18 23  1  0
  9 10  1  0
  9 11  1  0
 10 12  1  0
 11  5  1  6
 33 34  1  0
 33 35  1  0
 34 36  1  0
 35 37  1  0
 36 42  1  1
 20 21  2  0
 21 22  1  0
M  CHG  2   2  -1  26  -1
M  END
>  <COMPND>  (26) 
    8629 

>  <AUTHOR>  (26) 
    GENERATED BY OPEN BABEL 3.1.1

>  <MASTER>  (26) 
        0    0    0    0    0    0    0    0   58    0   58    0

>  <minimizedAffinity>  (26) 
-7.69962

>  <CNNscore>  (26) 
0.5211303234

>  <CNNaffinity>  (26) 
4.2140140533

>  <CNN_VS>  (26) 
2.1960504055

>  <CNNaffinity_variance>  (26) 
0.0087133897

$$$$
27
     RDKit          3D

 43 45  0  0  0  0  0  0  0  0999 V2000
   22.5542   74.9181   -6.0266 P   0  0  2  0  0  0  0  0  0  0  0  0
   21.2647   75.8731   -6.2326 O   0  0  0  0  0  0  0  0  0  0  0  0
   23.6570   75.1183   -7.0243 O   0  0  0  0  0  0  0  0  0  0  0  0
   21.9275   73.4278   -5.9618 O   0  0  0  0  0  0  0  0  0  0  0  0
   20.5208   73.2816   -6.0491 C   0  0  0  0  0  0  0  0  0  0  0  0
   19.9103   71.1386   -6.9484 O   0  0  0  0  0  0  0  0  0  0  0  0
   18.9893   72.6308   -9.3807 O   0  0  0  0  0  0  0  0  0  0  0  0
   16.6519   72.1375   -8.0655 O   0  0  0  0  0  0  0  0  0  0  0  0
   18.9196   73.0126   -8.0079 C   0  0  1  0  0  0  0  0  0  0  0  0
   17.8352   72.2286   -7.2985 C   0  0  2  0  0  0  0  0  0  0  0  0
   20.1803   72.5091   -7.3161 C   0  0  1  0  0  0  0  0  0  0  0  0
   18.5042   70.8801   -7.0934 C   0  0  2  0  0  0  0  0  0  0  0  0
   18.1949   72.9417   -9.8434 H   0  0  0  0  0  0  0  0  0  0  0  0
   16.2640   73.0206   -8.1679 H   0  0  0  0  0  0  0  0  0  0  0  0
   15.8995   69.8287   -6.7973 O   0  0  0  0  0  0  0  0  0  0  0  0
   16.7958   68.3183   -2.5362 O   0  0  0  0  0  0  0  0  0  0  0  0
   18.0302   70.2068   -5.9173 N   0  0  0  0  0  0  0  0  0  0  0  0
   16.3480   69.0773   -4.6759 N   0  0  0  0  0  0  0  0  0  0  0  0
   16.7041   69.7171   -5.8701 C   0  0  0  0  0  0  0  0  0  0  0  0
   18.8767   70.0374   -4.8271 C   0  0  0  0  0  0  0  0  0  0  0  0
   18.5213   69.4262   -3.6951 C   0  0  0  0  0  0  0  0  0  0  0  0
   17.1529   68.8855   -3.5642 C   0  0  0  0  0  0  0  0  0  0  0  0
   15.4288   68.7284   -4.6200 H   0  0  0  0  0  0  0  0  0  0  0  0
   22.9755   75.2022   -4.4921 O   0  0  0  0  0  0  0  0  0  0  0  0
   22.0753   75.4487   -3.1724 P   0  0  2  0  0  0  0  0  0  0  0  0
   20.6735   75.9870   -3.7747 O   0  0  0  0  0  0  0  0  0  0  0  0
   22.7050   76.3606   -2.1595 O   0  0  0  0  0  0  0  0  0  0  0  0
   21.7414   73.9682   -2.6232 O   0  0  0  0  0  0  0  0  0  0  0  0
   22.3920   73.0924   -0.5194 O   0  0  0  0  0  0  0  0  0  0  0  0
   22.3216   69.5867   -2.7002 O   0  0  0  0  0  0  0  0  0  0  0  0
   20.2621   70.0936   -0.7638 O   0  0  0  0  0  0  0  0  0  0  0  0
   23.2984   72.0248   -3.9171 O   0  0  0  0  0  0  0  0  0  0  0  0
   21.8871   70.8965   -2.3246 C   0  0  1  0  0  0  0  0  0  0  0  0
   21.4614   70.8576   -0.8555 C   0  0  1  0  0  0  0  0  0  0  0  0
   23.0378   71.8808   -2.5251 C   0  0  2  0  0  0  0  0  0  0  0  0
   21.2368   72.2728   -0.3062 C   0  0  1  0  0  0  0  0  0  0  0  0
   22.7317   73.2427   -1.8992 C   0  0  1  0  0  0  0  0  0  0  0  0
   21.5954   68.9569   -2.5758 H   0  0  0  0  0  0  0  0  0  0  0  0
   20.4174   69.2024   -1.1144 H   0  0  0  0  0  0  0  0  0  0  0  0
   23.4911   71.1559   -4.3015 H   0  0  0  0  0  0  0  0  0  0  0  0
   19.5733   72.1114    1.4013 O   0  0  0  0  0  0  0  0  0  0  0  0
   20.9655   72.2666    1.1966 C   0  0  0  0  0  0  0  0  0  0  0  0
   19.3857   72.1054    2.3534 H   0  0  0  0  0  0  0  0  0  0  0  0
 25 28  1  0
 25 24  1  0
 25 26  1  6
 25 27  2  0
  1  4  1  0
  1 24  1  0
  1  2  1  6
  1  3  2  0
  6 11  1  0
  6 12  1  0
 29 36  1  0
 29 37  1  0
  9  7  1  6
  7 13  1  0
 10  8  1  6
  8 14  1  0
 37 28  1  6
  4  5  1  0
 33 30  1  1
 30 38  1  0
 34 31  1  6
 31 39  1  0
 35 32  1  6
 32 40  1  0
 41 42  1  0
 41 43  1  0
 15 19  2  0
 16 22  2  0
 12 17  1  1
 17 19  1  0
 17 20  1  0
 18 19  1  0
 18 22  1  0
 18 23  1  0
  9 10  1  0
  9 11  1  0
 10 12  1  0
 11  5  1  1
 33 34  1  0
 33 35  1  0
 34 36  1  0
 35 37  1  0
 36 42  1  1
 20 21  2  0
 21 22  1  0
M  CHG  2   2  -1  26  -1
M  END
>  <COMPND>  (27) 
    8629 

>  <AUTHOR>  (27) 
    GENERATED BY OPEN BABEL 3.1.1

>  <MASTER>  (27) 
        0    0    0    0    0    0    0    0   58    0   58    0

>  <minimizedAffinity>  (27) 
-7.04640

>  <CNNscore>  (27) 
0.4604477584

>  <CNNaffinity>  (27) 
4.2917852402

>  <CNN_VS>  (27) 
1.9761428833

>  <CNNaffinity_variance>  (27) 
0.3900856674

$$$$
28
     RDKit          3D

 43 45  0  0  0  0  0  0  0  0999 V2000
   19.3808   75.6117   -2.3670 P   0  0  2  0  0  0  0  0  0  0  0  0
   20.0713   76.9923   -2.8513 O   0  0  0  0  0  0  0  0  0  0  0  0
   17.9612   75.7432   -1.8991 O   0  0  0  0  0  0  0  0  0  0  0  0
   20.4248   75.0139   -1.2850 O   0  0  0  0  0  0  0  0  0  0  0  0
   20.3994   75.5287    0.0349 C   0  0  0  0  0  0  0  0  0  0  0  0
   19.7180   73.2403    0.3043 O   0  0  0  0  0  0  0  0  0  0  0  0
   19.3813   73.8789    3.2145 O   0  0  0  0  0  0  0  0  0  0  0  0
   21.7834   72.5890    3.1631 O   0  0  0  0  0  0  0  0  0  0  0  0
   20.3597   74.3575    2.2932 C   0  0  1  0  0  0  0  0  0  0  0  0
   21.3767   73.2752    1.9967 C   0  0  2  0  0  0  0  0  0  0  0  0
   19.6823   74.5367    0.9403 C   0  0  1  0  0  0  0  0  0  0  0  0
   20.6157   72.3842    1.0296 C   0  0  2  0  0  0  0  0  0  0  0  0
   19.7905   73.7571    4.0861 H   0  0  0  0  0  0  0  0  0  0  0  0
   22.2630   73.1980    3.7460 H   0  0  0  0  0  0  0  0  0  0  0  0
   19.8969   70.1054   -0.4765 O   0  0  0  0  0  0  0  0  0  0  0  0
   24.0261   69.9245   -2.5156 O   0  0  0  0  0  0  0  0  0  0  0  0
   21.4833   71.7213    0.0972 N   0  0  0  0  0  0  0  0  0  0  0  0
   21.9534   70.0173   -1.4907 N   0  0  0  0  0  0  0  0  0  0  0  0
   21.0254   70.5838   -0.6077 C   0  0  0  0  0  0  0  0  0  0  0  0
   22.7723   72.1999   -0.1107 C   0  0  0  0  0  0  0  0  0  0  0  0
   23.6455   71.6474   -0.9554 C   0  0  0  0  0  0  0  0  0  0  0  0
   23.2461   70.4554   -1.7311 C   0  0  0  0  0  0  0  0  0  0  0  0
   21.6566   69.2236   -1.9925 H   0  0  0  0  0  0  0  0  0  0  0  0
   19.5815   74.6382   -3.6418 O   0  0  0  0  0  0  0  0  0  0  0  0
   19.7338   73.0318   -3.7372 P   0  0  2  0  0  0  0  0  0  0  0  0
   18.6031   72.4905   -2.7145 O   0  0  0  0  0  0  0  0  0  0  0  0
   21.1188   72.5270   -3.4526 O   0  0  0  0  0  0  0  0  0  0  0  0
   19.1724   72.6545   -5.2026 O   0  0  0  0  0  0  0  0  0  0  0  0
   18.8133   70.3141   -5.3040 O   0  0  0  0  0  0  0  0  0  0  0  0
   17.9966   71.2779   -9.2353 O   0  0  0  0  0  0  0  0  0  0  0  0
   15.8449   70.5534   -7.4765 O   0  0  0  0  0  0  0  0  0  0  0  0
   20.1439   72.6225   -7.8351 O   0  0  0  0  0  0  0  0  0  0  0  0
   18.0202   71.4862   -7.8205 C   0  0  1  0  0  0  0  0  0  0  0  0
   17.2204   70.3634   -7.1570 C   0  0  1  0  0  0  0  0  0  0  0  0
   19.4695   71.4716   -7.3380 C   0  0  2  0  0  0  0  0  0  0  0  0
   17.4208   70.3649   -5.6355 C   0  0  1  0  0  0  0  0  0  0  0  0
   19.5561   71.4243   -5.8115 C   0  0  1  0  0  0  0  0  0  0  0  0
   17.0792   71.2866   -9.5481 H   0  0  0  0  0  0  0  0  0  0  0  0
   15.7321   70.5509   -8.4401 H   0  0  0  0  0  0  0  0  0  0  0  0
   20.0822   72.6407   -8.8024 H   0  0  0  0  0  0  0  0  0  0  0  0
   15.4497   69.5258   -4.5774 O   0  0  0  0  0  0  0  0  0  0  0  0
   16.7596   69.1597   -4.9704 C   0  0  0  0  0  0  0  0  0  0  0  0
   15.0166   68.7683   -4.1528 H   0  0  0  0  0  0  0  0  0  0  0  0
 25 28  1  0
 25 24  1  0
 25 26  1  1
 25 27  2  0
  1  4  1  0
  1 24  1  0
  1  2  1  6
  1  3  2  0
  6 11  1  0
  6 12  1  0
 29 36  1  0
 29 37  1  0
  9  7  1  1
  7 13  1  0
 10  8  1  1
  8 14  1  0
 37 28  1  1
  4  5  1  0
 33 30  1  6
 30 38  1  0
 34 31  1  1
 31 39  1  0
 35 32  1  1
 32 40  1  0
 41 42  1  0
 41 43  1  0
 15 19  2  0
 16 22  2  0
 12 17  1  6
 17 19  1  0
 17 20  1  0
 18 19  1  0
 18 22  1  0
 18 23  1  0
  9 10  1  0
  9 11  1  0
 10 12  1  0
 11  5  1  6
 33 34  1  0
 33 35  1  0
 34 36  1  0
 35 37  1  0
 36 42  1  1
 20 21  2  0
 21 22  1  0
M  CHG  2   2  -1  26  -1
M  END
>  <COMPND>  (28) 
    8629 

>  <AUTHOR>  (28) 
    GENERATED BY OPEN BABEL 3.1.1

>  <MASTER>  (28) 
        0    0    0    0    0    0    0    0   58    0   58    0

>  <minimizedAffinity>  (28) 
-7.58226

>  <CNNscore>  (28) 
0.4450937212

>  <CNNaffinity>  (28) 
4.0171918869

>  <CNN_VS>  (28) 
1.7880269289

>  <CNNaffinity_variance>  (28) 
0.8250050545

$$$$
29
     RDKit          3D

 43 45  0  0  0  0  0  0  0  0999 V2000
   19.5283   69.8656   -2.6578 P   0  0  2  0  0  0  0  0  0  0  0  0
   19.5661   69.3146   -1.1372 O   0  0  0  0  0  0  0  0  0  0  0  0
   20.4335   69.1471   -3.6149 O   0  0  0  0  0  0  0  0  0  0  0  0
   19.7899   71.4547   -2.5018 O   0  0  0  0  0  0  0  0  0  0  0  0
   18.6895   72.2945   -2.1992 C   0  0  0  0  0  0  0  0  0  0  0  0
   20.0943   72.6001   -0.2738 O   0  0  0  0  0  0  0  0  0  0  0  0
   19.5537   75.5338   -0.5777 O   0  0  0  0  0  0  0  0  0  0  0  0
   22.0374   75.2706   -1.6724 O   0  0  0  0  0  0  0  0  0  0  0  0
   19.7207   74.5380   -1.5856 C   0  0  1  0  0  0  0  0  0  0  0  0
   21.1794   74.1482   -1.7030 C   0  0  2  0  0  0  0  0  0  0  0  0
   19.0865   73.2481   -1.0805 C   0  0  1  0  0  0  0  0  0  0  0  0
   21.3610   73.2405   -0.4984 C   0  0  2  0  0  0  0  0  0  0  0  0
   19.9507   76.3670   -0.8777 H   0  0  0  0  0  0  0  0  0  0  0  0
   21.8840   75.8166   -2.4592 H   0  0  0  0  0  0  0  0  0  0  0  0
   22.4388   71.5949    1.5285 O   0  0  0  0  0  0  0  0  0  0  0  0
   25.1913   69.4111   -1.4541 O   0  0  0  0  0  0  0  0  0  0  0  0
   22.3604   72.2332   -0.7173 N   0  0  0  0  0  0  0  0  0  0  0  0
   23.8084   70.5087    0.0417 N   0  0  0  0  0  0  0  0  0  0  0  0
   22.8354   71.4618    0.3689 C   0  0  0  0  0  0  0  0  0  0  0  0
   22.8588   72.0182   -1.9976 C   0  0  0  0  0  0  0  0  0  0  0  0
   23.7875   71.1062   -2.2927 C   0  0  0  0  0  0  0  0  0  0  0  0
   24.3365   70.2584   -1.2149 C   0  0  0  0  0  0  0  0  0  0  0  0
   24.1543   69.9599    0.7825 H   0  0  0  0  0  0  0  0  0  0  0  0
   17.9577   69.7910   -3.0326 O   0  0  0  0  0  0  0  0  0  0  0  0
   17.1842   69.0024   -4.2127 P   0  0  2  0  0  0  0  0  0  0  0  0
   15.6829   69.6005   -4.1366 O   0  0  0  0  0  0  0  0  0  0  0  0
   17.2610   67.5068   -4.1065 O   0  0  0  0  0  0  0  0  0  0  0  0
   17.7957   69.6083   -5.5779 O   0  0  0  0  0  0  0  0  0  0  0  0
   18.7700   71.7684   -5.6165 O   0  0  0  0  0  0  0  0  0  0  0  0
   17.8457   71.3899   -9.6231 O   0  0  0  0  0  0  0  0  0  0  0  0
   20.5860   71.2291   -8.7788 O   0  0  0  0  0  0  0  0  0  0  0  0
   16.0250   70.3674   -7.6184 O   0  0  0  0  0  0  0  0  0  0  0  0
   18.2552   70.9322   -8.3315 C   0  0  1  0  0  0  0  0  0  0  0  0
   19.5288   71.6831   -7.9382 C   0  0  1  0  0  0  0  0  0  0  0  0
   17.1374   71.2066   -7.3272 C   0  0  2  0  0  0  0  0  0  0  0  0
   19.8791   71.4450   -6.4632 C   0  0  1  0  0  0  0  0  0  0  0  0
   17.6051   70.9864   -5.8874 C   0  0  1  0  0  0  0  0  0  0  0  0
   18.5508   71.2182  -10.2656 H   0  0  0  0  0  0  0  0  0  0  0  0
   20.3519   71.3848   -9.7073 H   0  0  0  0  0  0  0  0  0  0  0  0
   15.7382   70.5164   -8.5324 H   0  0  0  0  0  0  0  0  0  0  0  0
   21.1039   73.4650   -6.8218 O   0  0  0  0  0  0  0  0  0  0  0  0
   21.0542   72.3076   -6.0080 C   0  0  0  0  0  0  0  0  0  0  0  0
   21.8469   74.0236   -6.5433 H   0  0  0  0  0  0  0  0  0  0  0  0
 25 28  1  0
 25 24  1  0
 25 26  1  6
 25 27  2  0
  1  4  1  0
  1 24  1  0
  1  2  1  1
  1  3  2  0
  6 11  1  0
  6 12  1  0
 29 36  1  0
 29 37  1  0
  9  7  1  1
  7 13  1  0
 10  8  1  1
  8 14  1  0
 37 28  1  6
  4  5  1  0
 33 30  1  6
 30 38  1  0
 34 31  1  6
 31 39  1  0
 35 32  1  6
 32 40  1  0
 41 42  1  0
 41 43  1  0
 15 19  2  0
 16 22  2  0
 12 17  1  6
 17 19  1  0
 17 20  1  0
 18 19  1  0
 18 22  1  0
 18 23  1  0
  9 10  1  0
  9 11  1  0
 10 12  1  0
 11  5  1  6
 33 34  1  0
 33 35  1  0
 34 36  1  0
 35 37  1  0
 36 42  1  1
 20 21  2  0
 21 22  1  0
M  CHG  2   2  -1  26  -1
M  END
>  <COMPND>  (29) 
    8629 

>  <AUTHOR>  (29) 
    GENERATED BY OPEN BABEL 3.1.1

>  <MASTER>  (29) 
        0    0    0    0    0    0    0    0   58    0   58    0

>  <minimizedAffinity>  (29) 
-8.22743

>  <CNNscore>  (29) 
0.4401808381

>  <CNNaffinity>  (29) 
4.1718916893

>  <CNN_VS>  (29) 
1.8363867998

>  <CNNaffinity_variance>  (29) 
0.4185904562

$$$$
30
     RDKit          3D

 43 45  0  0  0  0  0  0  0  0999 V2000
   22.5494   73.1196   -4.0024 P   0  0  2  0  0  0  0  0  0  0  0  0
   24.0295   72.7208   -4.5198 O   0  0  0  0  0  0  0  0  0  0  0  0
   22.4613   74.4357   -3.2872 O   0  0  0  0  0  0  0  0  0  0  0  0
   22.0725   71.8262   -3.1552 O   0  0  0  0  0  0  0  0  0  0  0  0
   23.0352   71.1328   -2.3806 C   0  0  0  0  0  0  0  0  0  0  0  0
   22.7784   70.9497    0.0015 O   0  0  0  0  0  0  0  0  0  0  0  0
   20.2297   69.4790   -0.5744 O   0  0  0  0  0  0  0  0  0  0  0  0
   19.3426   71.9763    0.0682 O   0  0  0  0  0  0  0  0  0  0  0  0
   20.8139   70.5785   -1.2708 C   0  0  1  0  0  0  0  0  0  0  0  0
   20.6412   71.8559   -0.4758 C   0  0  2  0  0  0  0  0  0  0  0  0
   22.3263   70.3949   -1.2531 C   0  0  1  0  0  0  0  0  0  0  0  0
   21.7114   71.7093    0.5925 C   0  0  2  0  0  0  0  0  0  0  0  0
   19.2638   69.5740   -0.5727 H   0  0  0  0  0  0  0  0  0  0  0  0
   18.6979   72.0670   -0.6507 H   0  0  0  0  0  0  0  0  0  0  0  0
   21.7844   72.5611    3.2846 O   0  0  0  0  0  0  0  0  0  0  0  0
   23.7107   76.5910    2.1486 O   0  0  0  0  0  0  0  0  0  0  0  0
   22.2270   72.9763    1.0288 N   0  0  0  0  0  0  0  0  0  0  0  0
   22.7437   74.5669    2.7168 N   0  0  0  0  0  0  0  0  0  0  0  0
   22.2168   73.3073    2.4038 C   0  0  0  0  0  0  0  0  0  0  0  0
   22.7358   73.8751    0.0976 C   0  0  0  0  0  0  0  0  0  0  0  0
   23.2334   75.0729    0.4122 C   0  0  0  0  0  0  0  0  0  0  0  0
   23.2597   75.4959    1.8273 C   0  0  0  0  0  0  0  0  0  0  0  0
   22.7465   74.8193    3.6687 H   0  0  0  0  0  0  0  0  0  0  0  0
   21.6563   73.0231   -5.3463 O   0  0  0  0  0  0  0  0  0  0  0  0
   20.2347   73.6921   -5.7264 P   0  0  2  0  0  0  0  0  0  0  0  0
   20.6549   75.1166   -6.3683 O   0  0  0  0  0  0  0  0  0  0  0  0
   19.2738   73.7901   -4.5772 O   0  0  0  0  0  0  0  0  0  0  0  0
   19.6963   72.8247   -6.9765 O   0  0  0  0  0  0  0  0  0  0  0  0
   19.1306   70.7857   -5.9092 O   0  0  0  0  0  0  0  0  0  0  0  0
   17.6616   69.9842   -9.6842 O   0  0  0  0  0  0  0  0  0  0  0  0
   15.8325   70.4961   -7.5300 O   0  0  0  0  0  0  0  0  0  0  0  0
   20.1412   71.4465   -9.3802 O   0  0  0  0  0  0  0  0  0  0  0  0
   17.9722   70.8034   -8.5537 C   0  0  1  0  0  0  0  0  0  0  0  0
   17.2230   70.2499   -7.3400 C   0  0  1  0  0  0  0  0  0  0  0  0
   19.4806   70.7726   -8.3144 C   0  0  2  0  0  0  0  0  0  0  0  0
   17.7096   70.9073   -6.0415 C   0  0  1  0  0  0  0  0  0  0  0  0
   19.8528   71.4081   -6.9736 C   0  0  1  0  0  0  0  0  0  0  0  0
   16.7053   69.9998   -9.8418 H   0  0  0  0  0  0  0  0  0  0  0  0
   15.5380   70.0761   -8.3535 H   0  0  0  0  0  0  0  0  0  0  0  0
   19.8977   71.0347  -10.2233 H   0  0  0  0  0  0  0  0  0  0  0  0
   17.0723   71.2134   -3.7592 O   0  0  0  0  0  0  0  0  0  0  0  0
   17.0894   70.2597   -4.8053 C   0  0  0  0  0  0  0  0  0  0  0  0
   16.6799   70.8153   -2.9659 H   0  0  0  0  0  0  0  0  0  0  0  0
 25 28  1  0
 25 24  1  0
 25 26  1  6
 25 27  2  0
  1  4  1  0
  1 24  1  0
  1  2  1  6
  1  3  2  0
  6 11  1  0
  6 12  1  0
 29 36  1  0
 29 37  1  0
  9  7  1  1
  7 13  1  0
 10  8  1  1
  8 14  1  0
 37 28  1  6
  4  5  1  0
 33 30  1  6
 30 38  1  0
 34 31  1  6
 31 39  1  0
 35 32  1  6
 32 40  1  0
 41 42  1  0
 41 43  1  0
 15 19  2  0
 16 22  2  0
 12 17  1  6
 17 19  1  0
 17 20  1  0
 18 19  1  0
 18 22  1  0
 18 23  1  0
  9 10  1  0
  9 11  1  0
 10 12  1  0
 11  5  1  6
 33 34  1  0
 33 35  1  0
 34 36  1  0
 35 37  1  0
 36 42  1  1
 20 21  2  0
 21 22  1  0
M  CHG  2   2  -1  26  -1
M  END
>  <COMPND>  (30) 
    8629 

>  <AUTHOR>  (30) 
    GENERATED BY OPEN BABEL 3.1.1

>  <MASTER>  (30) 
        0    0    0    0    0    0    0    0   58    0   58    0

>  <minimizedAffinity>  (30) 
-8.41255

>  <CNNscore>  (30) 
0.4371860325

>  <CNNaffinity>  (30) 
4.0863261223

>  <CNN_VS>  (30) 
1.7864847183

>  <CNNaffinity_variance>  (30) 
0.3425835073

$$$$
31
     RDKit          3D

 43 45  0  0  0  0  0  0  0  0999 V2000
   19.5488   69.7653   -1.9683 P   0  0  2  0  0  0  0  0  0  0  0  0
   18.7531   71.1740   -1.9769 O   0  0  0  0  0  0  0  0  0  0  0  0
   19.9266   69.2591   -0.6072 O   0  0  0  0  0  0  0  0  0  0  0  0
   20.7766   70.0065   -2.9940 O   0  0  0  0  0  0  0  0  0  0  0  0
   21.1737   71.3380   -3.2721 C   0  0  0  0  0  0  0  0  0  0  0  0
   22.8845   72.5883   -2.1391 O   0  0  0  0  0  0  0  0  0  0  0  0
   24.6707   70.2304   -2.6297 O   0  0  0  0  0  0  0  0  0  0  0  0
   23.9482   69.8963   -0.0215 O   0  0  0  0  0  0  0  0  0  0  0  0
   23.2763   70.2589   -2.3298 C   0  0  1  0  0  0  0  0  0  0  0  0
   23.0594   70.5950   -0.8691 C   0  0  2  0  0  0  0  0  0  0  0  0
   22.6708   71.4702   -3.0282 C   0  0  1  0  0  0  0  0  0  0  0  0
   23.2943   72.0959   -0.8529 C   0  0  2  0  0  0  0  0  0  0  0  0
   25.0793   69.4650   -2.1948 H   0  0  0  0  0  0  0  0  0  0  0  0
   23.7587   68.9461   -0.0668 H   0  0  0  0  0  0  0  0  0  0  0  0
   23.6946   74.7728   -0.0455 O   0  0  0  0  0  0  0  0  0  0  0  0
   20.3022   74.5343    3.0651 O   0  0  0  0  0  0  0  0  0  0  0  0
   22.5297   72.7590    0.1655 N   0  0  0  0  0  0  0  0  0  0  0  0
   22.0050   74.6519    1.5026 N   0  0  0  0  0  0  0  0  0  0  0  0
   22.8116   74.1049    0.4965 C   0  0  0  0  0  0  0  0  0  0  0  0
   21.5130   72.0758    0.8239 C   0  0  0  0  0  0  0  0  0  0  0  0
   20.7538   72.6115    1.7820 C   0  0  0  0  0  0  0  0  0  0  0  0
   20.9833   74.0132    2.1874 C   0  0  0  0  0  0  0  0  0  0  0  0
   22.1834   75.5882    1.7501 H   0  0  0  0  0  0  0  0  0  0  0  0
   18.5666   68.7880   -2.8008 O   0  0  0  0  0  0  0  0  0  0  0  0
   17.5150   69.1004   -3.9881 P   0  0  2  0  0  0  0  0  0  0  0  0
   16.5440   70.2198   -3.3387 O   0  0  0  0  0  0  0  0  0  0  0  0
   16.7999   67.8886   -4.5114 O   0  0  0  0  0  0  0  0  0  0  0  0
   18.3750   69.8998   -5.0956 O   0  0  0  0  0  0  0  0  0  0  0  0
   18.9153   72.1176   -5.7326 O   0  0  0  0  0  0  0  0  0  0  0  0
   17.4338   70.7395   -9.3322 O   0  0  0  0  0  0  0  0  0  0  0  0
   20.2574   71.1702   -9.0326 O   0  0  0  0  0  0  0  0  0  0  0  0
   16.1853   69.9260   -6.8504 O   0  0  0  0  0  0  0  0  0  0  0  0
   18.1262   70.6408   -8.0847 C   0  0  1  0  0  0  0  0  0  0  0  0
   19.2867   71.6377   -8.1001 C   0  0  1  0  0  0  0  0  0  0  0  0
   17.1566   70.9620   -6.9489 C   0  0  2  0  0  0  0  0  0  0  0  0
   19.9113   71.7824   -6.7059 C   0  0  1  0  0  0  0  0  0  0  0  0
   17.8859   71.1335   -5.6151 C   0  0  1  0  0  0  0  0  0  0  0  0
   18.0437   70.5363  -10.0576 H   0  0  0  0  0  0  0  0  0  0  0  0
   19.8500   71.0827   -9.9087 H   0  0  0  0  0  0  0  0  0  0  0  0
   15.7304   69.8275   -7.7009 H   0  0  0  0  0  0  0  0  0  0  0  0
   20.3541   74.1067   -7.0378 O   0  0  0  0  0  0  0  0  0  0  0  0
   20.9658   72.8861   -6.6633 C   0  0  0  0  0  0  0  0  0  0  0  0
   21.0134   74.8185   -7.0150 H   0  0  0  0  0  0  0  0  0  0  0  0
 25 28  1  0
 25 24  1  0
 25 26  1  1
 25 27  2  0
  1  4  1  0
  1 24  1  0
  1  2  1  1
  1  3  2  0
  6 11  1  0
  6 12  1  0
 29 36  1  0
 29 37  1  0
  9  7  1  1
  7 13  1  0
 10  8  1  1
  8 14  1  0
 37 28  1  6
  4  5  1  0
 33 30  1  6
 30 38  1  0
 34 31  1  6
 31 39  1  0
 35 32  1  1
 32 40  1  0
 41 42  1  0
 41 43  1  0
 15 19  2  0
 16 22  2  0
 12 17  1  1
 17 19  1  0
 17 20  1  0
 18 19  1  0
 18 22  1  0
 18 23  1  0
  9 10  1  0
  9 11  1  0
 10 12  1  0
 11  5  1  1
 33 34  1  0
 33 35  1  0
 34 36  1  0
 35 37  1  0
 36 42  1  6
 20 21  2  0
 21 22  1  0
M  CHG  2   2  -1  26  -1
M  END
>  <COMPND>  (31) 
    8629 

>  <AUTHOR>  (31) 
    GENERATED BY OPEN BABEL 3.1.1

>  <MASTER>  (31) 
        0    0    0    0    0    0    0    0   58    0   58    0

>  <minimizedAffinity>  (31) 
-8.76814

>  <CNNscore>  (31) 
0.4193058610

>  <CNNaffinity>  (31) 
4.1482377052

>  <CNN_VS>  (31) 
1.7393803596

>  <CNNaffinity_variance>  (31) 
0.2473448217

$$$$
32
     RDKit          3D

 43 45  0  0  0  0  0  0  0  0999 V2000
   22.8859   71.2267   -2.8728 P   0  0  2  0  0  0  0  0  0  0  0  0
   23.8570   72.0162   -3.8981 O   0  0  0  0  0  0  0  0  0  0  0  0
   23.4968   70.0199   -2.2234 O   0  0  0  0  0  0  0  0  0  0  0  0
   21.5455   70.9564   -3.7376 O   0  0  0  0  0  0  0  0  0  0  0  0
   20.8471   69.7395   -3.5397 C   0  0  0  0  0  0  0  0  0  0  0  0
   18.8447   70.9077   -4.1717 O   0  0  0  0  0  0  0  0  0  0  0  0
   17.4108   69.1049   -2.2522 O   0  0  0  0  0  0  0  0  0  0  0  0
   16.8571   67.9636   -4.6662 O   0  0  0  0  0  0  0  0  0  0  0  0
   18.5161   68.8163   -3.1068 C   0  0  1  0  0  0  0  0  0  0  0  0
   18.0539   68.7049   -4.5447 C   0  0  2  0  0  0  0  0  0  0  0  0
   19.4075   70.0510   -3.1540 C   0  0  1  0  0  0  0  0  0  0  0  0
   17.8804   70.1632   -4.9338 C   0  0  2  0  0  0  0  0  0  0  0  0
   16.8273   68.3307   -2.2060 H   0  0  0  0  0  0  0  0  0  0  0  0
   17.0191   67.0429   -4.4075 H   0  0  0  0  0  0  0  0  0  0  0  0
   15.8901   70.0145   -6.9324 O   0  0  0  0  0  0  0  0  0  0  0  0
   18.9012   71.0463  -10.2656 O   0  0  0  0  0  0  0  0  0  0  0  0
   18.1164   70.3888   -6.3320 N   0  0  0  0  0  0  0  0  0  0  0  0
   17.3909   70.5285   -8.5904 N   0  0  0  0  0  0  0  0  0  0  0  0
   17.0482   70.2887   -7.2536 C   0  0  0  0  0  0  0  0  0  0  0  0
   19.3954   70.7056   -6.7766 C   0  0  0  0  0  0  0  0  0  0  0  0
   19.7059   70.9301   -8.0551 C   0  0  0  0  0  0  0  0  0  0  0  0
   18.6474   70.8454   -9.0819 C   0  0  0  0  0  0  0  0  0  0  0  0
   16.6630   70.4640   -9.2505 H   0  0  0  0  0  0  0  0  0  0  0  0
   22.4264   72.3848   -1.8429 O   0  0  0  0  0  0  0  0  0  0  0  0
   22.3542   72.4017   -0.2281 P   0  0  2  0  0  0  0  0  0  0  0  0
   23.1752   73.7389    0.1660 O   0  0  0  0  0  0  0  0  0  0  0  0
   22.8623   71.1484    0.4238 O   0  0  0  0  0  0  0  0  0  0  0  0
   20.8155   72.7541    0.1083 O   0  0  0  0  0  0  0  0  0  0  0  0
   19.6856   74.7364   -0.5324 O   0  0  0  0  0  0  0  0  0  0  0  0
   17.6200   73.8934    2.9423 O   0  0  0  0  0  0  0  0  0  0  0  0
   16.3413   73.4983    0.4012 O   0  0  0  0  0  0  0  0  0  0  0  0
   20.4744   73.4296    2.8106 O   0  0  0  0  0  0  0  0  0  0  0  0
   18.3238   73.5822    1.7367 C   0  0  1  0  0  0  0  0  0  0  0  0
   17.5662   74.2079    0.5640 C   0  0  1  0  0  0  0  0  0  0  0  0
   19.7399   74.1480    1.8252 C   0  0  2  0  0  0  0  0  0  0  0  0
   18.3946   74.1470   -0.7264 C   0  0  1  0  0  0  0  0  0  0  0  0
   20.4590   74.0840    0.4766 C   0  0  1  0  0  0  0  0  0  0  0  0
   16.7202   73.5364    2.8928 H   0  0  0  0  0  0  0  0  0  0  0  0
   15.8280   73.5441    1.2232 H   0  0  0  0  0  0  0  0  0  0  0  0
   20.0090   73.4780    3.6597 H   0  0  0  0  0  0  0  0  0  0  0  0
   16.9248   73.9956   -2.6041 O   0  0  0  0  0  0  0  0  0  0  0  0
   17.7259   74.9044   -1.8715 C   0  0  0  0  0  0  0  0  0  0  0  0
   16.4928   74.4638   -3.3361 H   0  0  0  0  0  0  0  0  0  0  0  0
 25 28  1  0
 25 24  1  0
 25 26  1  1
 25 27  2  0
  1  4  1  0
  1 24  1  0
  1  2  1  6
  1  3  2  0
  6 11  1  0
  6 12  1  0
 29 36  1  0
 29 37  1  0
  9  7  1  1
  7 13  1  0
 10  8  1  1
  8 14  1  0
 37 28  1  6
  4  5  1  0
 33 30  1  1
 30 38  1  0
 34 31  1  6
 31 39  1  0
 35 32  1  1
 32 40  1  0
 41 42  1  0
 41 43  1  0
 15 19  2  0
 16 22  2  0
 12 17  1  6
 17 19  1  0
 17 20  1  0
 18 19  1  0
 18 22  1  0
 18 23  1  0
  9 10  1  0
  9 11  1  0
 10 12  1  0
 11  5  1  6
 33 34  1  0
 33 35  1  0
 34 36  1  0
 35 37  1  0
 36 42  1  6
 20 21  2  0
 21 22  1  0
M  CHG  2   2  -1  26  -1
M  END
>  <COMPND>  (32) 
    8629 

>  <AUTHOR>  (32) 
    GENERATED BY OPEN BABEL 3.1.1

>  <MASTER>  (32) 
        0    0    0    0    0    0    0    0   58    0   58    0

>  <minimizedAffinity>  (32) 
-7.29309

>  <CNNscore>  (32) 
0.4172326326

>  <CNNaffinity>  (32) 
4.3442635536

>  <CNN_VS>  (32) 
1.8125685453

>  <CNNaffinity_variance>  (32) 
0.0524265990

$$$$
33
     RDKit          3D

 43 45  0  0  0  0  0  0  0  0999 V2000
   20.6493   75.1832   -5.5252 P   0  0  2  0  0  0  0  0  0  0  0  0
   20.1076   76.2095   -4.3979 O   0  0  0  0  0  0  0  0  0  0  0  0
   21.0205   75.8171   -6.8335 O   0  0  0  0  0  0  0  0  0  0  0  0
   19.5026   74.0441   -5.5966 O   0  0  0  0  0  0  0  0  0  0  0  0
   18.5308   74.1265   -6.6246 C   0  0  0  0  0  0  0  0  0  0  0  0
   19.2716   71.8867   -7.0807 O   0  0  0  0  0  0  0  0  0  0  0  0
   18.2080   72.2996   -9.8536 O   0  0  0  0  0  0  0  0  0  0  0  0
   16.2385   70.8272   -8.6747 O   0  0  0  0  0  0  0  0  0  0  0  0
   17.6938   72.7738   -8.6102 C   0  0  1  0  0  0  0  0  0  0  0  0
   17.0416   71.6414   -7.8448 C   0  0  2  0  0  0  0  0  0  0  0  0
   18.8768   73.1225   -7.7157 C   0  0  1  0  0  0  0  0  0  0  0  0
   18.2466   70.9014   -7.2894 C   0  0  2  0  0  0  0  0  0  0  0  0
   17.4708   72.0708  -10.4420 H   0  0  0  0  0  0  0  0  0  0  0  0
   15.4855   71.3431   -9.0029 H   0  0  0  0  0  0  0  0  0  0  0  0
   20.2139   69.8838   -5.5367 O   0  0  0  0  0  0  0  0  0  0  0  0
   17.0415   68.4285   -2.5268 O   0  0  0  0  0  0  0  0  0  0  0  0
   17.9628   70.2520   -6.0407 N   0  0  0  0  0  0  0  0  0  0  0  0
   18.6327   69.1602   -4.0394 N   0  0  0  0  0  0  0  0  0  0  0  0
   19.0235   69.7762   -5.2351 C   0  0  0  0  0  0  0  0  0  0  0  0
   16.6450   70.0929   -5.6262 C   0  0  0  0  0  0  0  0  0  0  0  0
   16.2890   69.5020   -4.4836 C   0  0  0  0  0  0  0  0  0  0  0  0
   17.3366   68.9770   -3.5842 C   0  0  0  0  0  0  0  0  0  0  0  0
   19.3547   68.8205   -3.4621 H   0  0  0  0  0  0  0  0  0  0  0  0
   21.8655   74.4279   -4.7746 O   0  0  0  0  0  0  0  0  0  0  0  0
   22.4520   72.9312   -4.9450 P   0  0  2  0  0  0  0  0  0  0  0  0
   23.9832   73.0733   -4.4420 O   0  0  0  0  0  0  0  0  0  0  0  0
   22.3044   72.3662   -6.3280 O   0  0  0  0  0  0  0  0  0  0  0  0
   21.7216   72.0723   -3.7901 O   0  0  0  0  0  0  0  0  0  0  0  0
   22.6285   72.5208   -1.6469 O   0  0  0  0  0  0  0  0  0  0  0  0
   20.2715   69.2658   -0.6980 O   0  0  0  0  0  0  0  0  0  0  0  0
   19.4768   71.8896    0.1578 O   0  0  0  0  0  0  0  0  0  0  0  0
   21.7055   69.3263   -3.2119 O   0  0  0  0  0  0  0  0  0  0  0  0
   20.6145   70.4678   -1.3931 C   0  0  1  0  0  0  0  0  0  0  0  0
   20.7683   71.5895   -0.3641 C   0  0  1  0  0  0  0  0  0  0  0  0
   21.9228   70.2502   -2.1509 C   0  0  2  0  0  0  0  0  0  0  0  0
   21.3926   72.8403   -0.9973 C   0  0  1  0  0  0  0  0  0  0  0  0
   22.4837   71.5639   -2.6983 C   0  0  1  0  0  0  0  0  0  0  0  0
   19.4414   69.3971   -0.2152 H   0  0  0  0  0  0  0  0  0  0  0  0
   19.0935   71.0914    0.5542 H   0  0  0  0  0  0  0  0  0  0  0  0
   21.3507   68.4988   -2.8524 H   0  0  0  0  0  0  0  0  0  0  0  0
   20.5555   74.7339    0.1953 O   0  0  0  0  0  0  0  0  0  0  0  0
   21.7003   73.9150    0.0431 C   0  0  0  0  0  0  0  0  0  0  0  0
   20.7366   75.4224    0.8548 H   0  0  0  0  0  0  0  0  0  0  0  0
 25 28  1  0
 25 24  1  0
 25 26  1  1
 25 27  2  0
  1  4  1  0
  1 24  1  0
  1  2  1  1
  1  3  2  0
  6 11  1  0
  6 12  1  0
 29 36  1  0
 29 37  1  0
  9  7  1  6
  7 13  1  0
 10  8  1  6
  8 14  1  0
 37 28  1  6
  4  5  1  0
 33 30  1  1
 30 38  1  0
 34 31  1  6
 31 39  1  0
 35 32  1  6
 32 40  1  0
 41 42  1  0
 41 43  1  0
 15 19  2  0
 16 22  2  0
 12 17  1  1
 17 19  1  0
 17 20  1  0
 18 19  1  0
 18 22  1  0
 18 23  1  0
  9 10  1  0
  9 11  1  0
 10 12  1  0
 11  5  1  1
 33 34  1  0
 33 35  1  0
 34 36  1  0
 35 37  1  0
 36 42  1  1
 20 21  2  0
 21 22  1  0
M  CHG  2   2  -1  26  -1
M  END
>  <COMPND>  (33) 
    8629 

>  <AUTHOR>  (33) 
    GENERATED BY OPEN BABEL 3.1.1

>  <MASTER>  (33) 
        0    0    0    0    0    0    0    0   58    0   58    0

>  <minimizedAffinity>  (33) 
-7.69602

>  <CNNscore>  (33) 
0.4115343690

>  <CNNaffinity>  (33) 
4.2012777328

>  <CNN_VS>  (33) 
1.7289701700

>  <CNNaffinity_variance>  (33) 
0.5360280871

$$$$
34
     RDKit          3D

 43 45  0  0  0  0  0  0  0  0999 V2000
   20.3901   70.1405   -1.9224 P   0  0  2  0  0  0  0  0  0  0  0  0
   20.0160   69.2279   -0.6399 O   0  0  0  0  0  0  0  0  0  0  0  0
   21.3476   69.5107   -2.8908 O   0  0  0  0  0  0  0  0  0  0  0  0
   20.8677   71.5440   -1.2743 O   0  0  0  0  0  0  0  0  0  0  0  0
   20.3699   71.9032    0.0028 C   0  0  0  0  0  0  0  0  0  0  0  0
   22.6333   72.6695    0.2541 O   0  0  0  0  0  0  0  0  0  0  0  0
   22.1215   72.6280    3.2083 O   0  0  0  0  0  0  0  0  0  0  0  0
   21.8683   75.2738    2.5983 O   0  0  0  0  0  0  0  0  0  0  0  0
   21.2355   72.9707    2.1438 C   0  0  1  0  0  0  0  0  0  0  0  0
   21.5899   74.3318    1.5824 C   0  0  2  0  0  0  0  0  0  0  0  0
   21.5390   72.0522    0.9667 C   0  0  1  0  0  0  0  0  0  0  0  0
   22.8068   74.0141    0.7302 C   0  0  2  0  0  0  0  0  0  0  0  0
   21.9463   73.2011    3.9717 H   0  0  0  0  0  0  0  0  0  0  0  0
   21.0633   75.4425    3.1124 H   0  0  0  0  0  0  0  0  0  0  0  0
   24.0105   76.5675    0.8271 O   0  0  0  0  0  0  0  0  0  0  0  0
   23.2285   77.3078   -3.6542 O   0  0  0  0  0  0  0  0  0  0  0  0
   22.9317   74.8953   -0.3964 N   0  0  0  0  0  0  0  0  0  0  0  0
   23.6203   76.9340   -1.4044 N   0  0  0  0  0  0  0  0  0  0  0  0
   23.5521   76.1568   -0.2410 C   0  0  0  0  0  0  0  0  0  0  0  0
   22.4422   74.5057   -1.6384 C   0  0  0  0  0  0  0  0  0  0  0  0
   22.5139   75.2591   -2.7377 C   0  0  0  0  0  0  0  0  0  0  0  0
   23.1473   76.5914   -2.6612 C   0  0  0  0  0  0  0  0  0  0  0  0
   24.0480   77.8170   -1.3200 H   0  0  0  0  0  0  0  0  0  0  0  0
   18.9431   70.5019   -2.5458 O   0  0  0  0  0  0  0  0  0  0  0  0
   18.1173   69.8379   -3.7665 P   0  0  2  0  0  0  0  0  0  0  0  0
   16.5775   70.1678   -3.3956 O   0  0  0  0  0  0  0  0  0  0  0  0
   18.4037   68.3800   -3.9820 O   0  0  0  0  0  0  0  0  0  0  0  0
   18.4408   70.7781   -5.0378 O   0  0  0  0  0  0  0  0  0  0  0  0
   19.6977   70.2072   -6.9641 O   0  0  0  0  0  0  0  0  0  0  0  0
   20.6244   74.2248   -6.7385 O   0  0  0  0  0  0  0  0  0  0  0  0
   18.8591   73.2905   -8.8022 O   0  0  0  0  0  0  0  0  0  0  0  0
   20.3958   72.6574   -4.3156 O   0  0  0  0  0  0  0  0  0  0  0  0
   19.7892   73.0710   -6.6096 C   0  0  1  0  0  0  0  0  0  0  0  0
   19.6470   72.4253   -7.9893 C   0  0  1  0  0  0  0  0  0  0  0  0
   20.4319   72.0971   -5.6238 C   0  0  2  0  0  0  0  0  0  0  0  0
   18.9902   71.0420   -7.8884 C   0  0  1  0  0  0  0  0  0  0  0  0
   19.7332   70.7364   -5.6373 C   0  0  1  0  0  0  0  0  0  0  0  0
   20.2218   74.8474   -7.3628 H   0  0  0  0  0  0  0  0  0  0  0  0
   19.2845   74.1607   -8.8573 H   0  0  0  0  0  0  0  0  0  0  0  0
   20.8415   73.5183   -4.3203 H   0  0  0  0  0  0  0  0  0  0  0  0
   18.1172   71.0067  -10.1123 O   0  0  0  0  0  0  0  0  0  0  0  0
   18.9815   70.3138   -9.2307 C   0  0  0  0  0  0  0  0  0  0  0  0
   18.1020   70.5547  -10.9709 H   0  0  0  0  0  0  0  0  0  0  0  0
 25 28  1  0
 25 24  1  0
 25 26  1  1
 25 27  2  0
  1  4  1  0
  1 24  1  0
  1  2  1  1
  1  3  2  0
  6 11  1  0
  6 12  1  0
 29 36  1  0
 29 37  1  0
  9  7  1  1
  7 13  1  0
 10  8  1  1
  8 14  1  0
 37 28  1  6
  4  5  1  0
 33 30  1  6
 30 38  1  0
 34 31  1  6
 31 39  1  0
 35 32  1  1
 32 40  1  0
 41 42  1  0
 41 43  1  0
 15 19  2  0
 16 22  2  0
 12 17  1  6
 17 19  1  0
 17 20  1  0
 18 19  1  0
 18 22  1  0
 18 23  1  0
  9 10  1  0
  9 11  1  0
 10 12  1  0
 11  5  1  6
 33 34  1  0
 33 35  1  0
 34 36  1  0
 35 37  1  0
 36 42  1  6
 20 21  2  0
 21 22  1  0
M  CHG  2   2  -1  26  -1
M  END
>  <COMPND>  (34) 
    8629 

>  <AUTHOR>  (34) 
    GENERATED BY OPEN BABEL 3.1.1

>  <MASTER>  (34) 
        0    0    0    0    0    0    0    0   58    0   58    0

>  <minimizedAffinity>  (34) 
-7.14399

>  <CNNscore>  (34) 
0.3500481546

>  <CNNaffinity>  (34) 
3.8561947346

>  <CNN_VS>  (34) 
1.3498538733

>  <CNNaffinity_variance>  (34) 
0.3232584000

$$$$
35
     RDKit          3D

 43 45  0  0  0  0  0  0  0  0999 V2000
   22.7786   70.8977   -2.7544 P   0  0  2  0  0  0  0  0  0  0  0  0
   24.3204   70.7492   -2.2873 O   0  0  0  0  0  0  0  0  0  0  0  0
   22.0451   69.6020   -2.9406 O   0  0  0  0  0  0  0  0  0  0  0  0
   22.8578   71.8537   -4.0574 O   0  0  0  0  0  0  0  0  0  0  0  0
   21.9094   72.8983   -4.1882 C   0  0  0  0  0  0  0  0  0  0  0  0
   20.6581   71.6398   -5.8082 O   0  0  0  0  0  0  0  0  0  0  0  0
   20.2858   74.2361   -7.2612 O   0  0  0  0  0  0  0  0  0  0  0  0
   17.8992   73.9249   -5.9791 O   0  0  0  0  0  0  0  0  0  0  0  0
   20.3267   73.9857   -5.8573 C   0  0  1  0  0  0  0  0  0  0  0  0
   19.0418   73.3251   -5.4034 C   0  0  2  0  0  0  0  0  0  0  0  0
   21.3542   72.8892   -5.6059 C   0  0  1  0  0  0  0  0  0  0  0  0
   19.2445   71.8917   -5.8643 C   0  0  2  0  0  0  0  0  0  0  0  0
   19.6366   74.9334   -7.4463 H   0  0  0  0  0  0  0  0  0  0  0  0
   17.8137   74.8351   -5.6550 H   0  0  0  0  0  0  0  0  0  0  0  0
   17.2394   70.1127   -6.7546 O   0  0  0  0  0  0  0  0  0  0  0  0
   16.7189   68.3046   -2.5473 O   0  0  0  0  0  0  0  0  0  0  0  0
   18.5684   70.9450   -5.0230 N   0  0  0  0  0  0  0  0  0  0  0  0
   16.9820   69.2137   -4.6590 N   0  0  0  0  0  0  0  0  0  0  0  0
   17.5759   70.0978   -5.5687 C   0  0  0  0  0  0  0  0  0  0  0  0
   18.8915   70.8631   -3.6729 C   0  0  0  0  0  0  0  0  0  0  0  0
   18.3149   70.0154   -2.8184 C   0  0  0  0  0  0  0  0  0  0  0  0
   17.2679   69.0955   -3.3081 C   0  0  0  0  0  0  0  0  0  0  0  0
   16.2875   68.6140   -5.0166 H   0  0  0  0  0  0  0  0  0  0  0  0
   22.1495   71.8710   -1.6275 O   0  0  0  0  0  0  0  0  0  0  0  0
   21.5974   71.5562   -0.1412 P   0  0  2  0  0  0  0  0  0  0  0  0
   22.9145   71.0361    0.6414 O   0  0  0  0  0  0  0  0  0  0  0  0
   20.4383   70.6028   -0.1044 O   0  0  0  0  0  0  0  0  0  0  0  0
   21.2908   73.0069    0.4964 O   0  0  0  0  0  0  0  0  0  0  0  0
   21.8471   73.5780    2.7282 O   0  0  0  0  0  0  0  0  0  0  0  0
   18.7211   76.2096    2.1334 O   0  0  0  0  0  0  0  0  0  0  0  0
   21.4132   77.2051    2.2335 O   0  0  0  0  0  0  0  0  0  0  0  0
   18.5874   73.5360    1.0318 O   0  0  0  0  0  0  0  0  0  0  0  0
   19.8681   75.4425    1.7572 C   0  0  1  0  0  0  0  0  0  0  0  0
   21.0471   75.8852    2.6260 C   0  0  1  0  0  0  0  0  0  0  0  0
   19.5692   73.9599    1.9714 C   0  0  2  0  0  0  0  0  0  0  0  0
   22.2391   74.9313    2.4700 C   0  0  1  0  0  0  0  0  0  0  0  0
   20.8310   73.1049    1.8419 C   0  0  1  0  0  0  0  0  0  0  0  0
   18.9042   77.1520    1.9993 H   0  0  0  0  0  0  0  0  0  0  0  0
   20.6516   77.7973    2.3364 H   0  0  0  0  0  0  0  0  0  0  0  0
   17.7935   74.0847    1.1241 H   0  0  0  0  0  0  0  0  0  0  0  0
   23.1426   74.5556    4.6497 O   0  0  0  0  0  0  0  0  0  0  0  0
   23.3678   75.2624    3.4439 C   0  0  0  0  0  0  0  0  0  0  0  0
   23.8535   74.7564    5.2790 H   0  0  0  0  0  0  0  0  0  0  0  0
 25 28  1  0
 25 24  1  0
 25 26  1  1
 25 27  2  0
  1  4  1  0
  1 24  1  0
  1  2  1  1
  1  3  2  0
  6 11  1  0
  6 12  1  0
 29 36  1  0
 29 37  1  0
  9  7  1  6
  7 13  1  0
 10  8  1  6
  8 14  1  0
 37 28  1  6
  4  5  1  0
 33 30  1  1
 30 38  1  0
 34 31  1  6
 31 39  1  0
 35 32  1  6
 32 40  1  0
 41 42  1  0
 41 43  1  0
 15 19  2  0
 16 22  2  0
 12 17  1  1
 17 19  1  0
 17 20  1  0
 18 19  1  0
 18 22  1  0
 18 23  1  0
  9 10  1  0
  9 11  1  0
 10 12  1  0
 11  5  1  1
 33 34  1  0
 33 35  1  0
 34 36  1  0
 35 37  1  0
 36 42  1  1
 20 21  2  0
 21 22  1  0
M  CHG  2   2  -1  26  -1
M  END
>  <COMPND>  (35) 
    8629 

>  <AUTHOR>  (35) 
    GENERATED BY OPEN BABEL 3.1.1

>  <MASTER>  (35) 
        0    0    0    0    0    0    0    0   58    0   58    0

>  <minimizedAffinity>  (35) 
-7.22722

>  <CNNscore>  (35) 
0.3471518755

>  <CNNaffinity>  (35) 
4.0548276901

>  <CNN_VS>  (35) 
1.4076410532

>  <CNNaffinity_variance>  (35) 
0.1185904890

$$$$
36
     RDKit          3D

 43 45  0  0  0  0  0  0  0  0999 V2000
   20.0297   71.6507   -1.1528 P   0  0  2  0  0  0  0  0  0  0  0  0
   20.2414   70.2630   -0.3484 O   0  0  0  0  0  0  0  0  0  0  0  0
   18.6905   72.2986   -0.9573 O   0  0  0  0  0  0  0  0  0  0  0  0
   20.4133   71.2770   -2.6796 O   0  0  0  0  0  0  0  0  0  0  0  0
   20.7014   72.3310   -3.5816 C   0  0  0  0  0  0  0  0  0  0  0  0
   20.1947   70.5434   -5.1052 O   0  0  0  0  0  0  0  0  0  0  0  0
   21.3366   72.2992   -7.2510 O   0  0  0  0  0  0  0  0  0  0  0  0
   18.6495   72.6200   -7.5878 O   0  0  0  0  0  0  0  0  0  0  0  0
   20.5730   72.6601   -6.1012 C   0  0  1  0  0  0  0  0  0  0  0  0
   19.1186   72.2863   -6.2973 C   0  0  2  0  0  0  0  0  0  0  0  0
   20.9858   71.7428   -4.9569 C   0  0  1  0  0  0  0  0  0  0  0  0
   19.1431   70.7868   -6.0538 C   0  0  2  0  0  0  0  0  0  0  0  0
   21.0906   72.8717   -7.9951 H   0  0  0  0  0  0  0  0  0  0  0  0
   18.6527   73.5841   -7.6938 H   0  0  0  0  0  0  0  0  0  0  0  0
   16.8808   70.1110   -7.6040 O   0  0  0  0  0  0  0  0  0  0  0  0
   14.4489   68.9287   -3.8719 O   0  0  0  0  0  0  0  0  0  0  0  0
   17.9055   70.2995   -5.5132 N   0  0  0  0  0  0  0  0  0  0  0  0
   15.6718   69.5227   -5.7444 N   0  0  0  0  0  0  0  0  0  0  0  0
   16.8302   69.9901   -6.3782 C   0  0  0  0  0  0  0  0  0  0  0  0
   17.7674   70.1324   -4.1395 C   0  0  0  0  0  0  0  0  0  0  0  0
   16.6557   69.6868   -3.5508 C   0  0  0  0  0  0  0  0  0  0  0  0
   15.4855   69.3408   -4.3832 C   0  0  0  0  0  0  0  0  0  0  0  0
   14.9095   69.3012   -6.3271 H   0  0  0  0  0  0  0  0  0  0  0  0
   21.2867   72.5455   -0.6709 O   0  0  0  0  0  0  0  0  0  0  0  0
   21.9040   72.8036    0.8005 P   0  0  2  0  0  0  0  0  0  0  0  0
   22.9226   74.0382    0.5643 O   0  0  0  0  0  0  0  0  0  0  0  0
   22.5336   71.5921    1.4249 O   0  0  0  0  0  0  0  0  0  0  0  0
   20.6859   73.4368    1.6492 O   0  0  0  0  0  0  0  0  0  0  0  0
   19.1520   75.0808    0.9003 O   0  0  0  0  0  0  0  0  0  0  0  0
   19.2352   76.0369    4.9165 O   0  0  0  0  0  0  0  0  0  0  0  0
   16.9129   74.7593    3.8109 O   0  0  0  0  0  0  0  0  0  0  0  0
   21.6686   75.2265    3.5744 O   0  0  0  0  0  0  0  0  0  0  0  0
   19.2700   75.1644    3.7839 C   0  0  1  0  0  0  0  0  0  0  0  0
   17.9550   75.3206    3.0177 C   0  0  1  0  0  0  0  0  0  0  0  0
   20.4562   75.5424    2.8988 C   0  0  2  0  0  0  0  0  0  0  0  0
   18.0228   74.6223    1.6528 C   0  0  1  0  0  0  0  0  0  0  0  0
   20.4016   74.8296    1.5464 C   0  0  1  0  0  0  0  0  0  0  0  0
   18.4846   75.8019    5.4829 H   0  0  0  0  0  0  0  0  0  0  0  0
   16.8811   75.2087    4.6701 H   0  0  0  0  0  0  0  0  0  0  0  0
   21.6912   75.6840    4.4288 H   0  0  0  0  0  0  0  0  0  0  0  0
   16.0372   75.9317    1.4248 O   0  0  0  0  0  0  0  0  0  0  0  0
   16.7815   74.8979    0.8070 C   0  0  0  0  0  0  0  0  0  0  0  0
   15.2443   76.1180    0.8973 H   0  0  0  0  0  0  0  0  0  0  0  0
 25 28  1  0
 25 24  1  0
 25 26  1  6
 25 27  2  0
  1  4  1  0
  1 24  1  0
  1  2  1  1
  1  3  2  0
  6 11  1  0
  6 12  1  0
 29 36  1  0
 29 37  1  0
  9  7  1  6
  7 13  1  0
 10  8  1  6
  8 14  1  0
 37 28  1  1
  4  5  1  0
 33 30  1  1
 30 38  1  0
 34 31  1  1
 31 39  1  0
 35 32  1  1
 32 40  1  0
 41 42  1  0
 41 43  1  0
 15 19  2  0
 16 22  2  0
 12 17  1  1
 17 19  1  0
 17 20  1  0
 18 19  1  0
 18 22  1  0
 18 23  1  0
  9 10  1  0
  9 11  1  0
 10 12  1  0
 11  5  1  1
 33 34  1  0
 33 35  1  0
 34 36  1  0
 35 37  1  0
 36 42  1  6
 20 21  2  0
 21 22  1  0
M  CHG  2   2  -1  26  -1
M  END
>  <COMPND>  (36) 
    8629 

>  <AUTHOR>  (36) 
    GENERATED BY OPEN BABEL 3.1.1

>  <MASTER>  (36) 
        0    0    0    0    0    0    0    0   58    0   58    0

>  <minimizedAffinity>  (36) 
-6.75331

>  <CNNscore>  (36) 
0.3433402777

>  <CNNaffinity>  (36) 
4.0157814026

>  <CNN_VS>  (36) 
1.3787795305

>  <CNNaffinity_variance>  (36) 
0.0991189927

$$$$
37
     RDKit          3D

 43 45  0  0  0  0  0  0  0  0999 V2000
   18.5511   74.9056   -3.7823 P   0  0  2  0  0  0  0  0  0  0  0  0
   17.0059   74.5453   -3.4661 O   0  0  0  0  0  0  0  0  0  0  0  0
   18.8390   76.3685   -3.9511 O   0  0  0  0  0  0  0  0  0  0  0  0
   18.9177   73.9667   -5.0479 O   0  0  0  0  0  0  0  0  0  0  0  0
   18.0246   73.9351   -6.1475 C   0  0  0  0  0  0  0  0  0  0  0  0
   19.3956   71.9797   -6.4125 O   0  0  0  0  0  0  0  0  0  0  0  0
   17.6603   71.3107   -8.7645 O   0  0  0  0  0  0  0  0  0  0  0  0
   16.6682   69.6853   -6.8125 O   0  0  0  0  0  0  0  0  0  0  0  0
   17.3042   71.9211   -7.5252 C   0  0  1  0  0  0  0  0  0  0  0  0
   17.2909   70.8901   -6.4159 C   0  0  2  0  0  0  0  0  0  0  0  0
   18.4524   72.8288   -7.1021 C   0  0  1  0  0  0  0  0  0  0  0  0
   18.7728   70.7158   -6.1301 C   0  0  2  0  0  0  0  0  0  0  0  0
   16.9419   70.7264   -9.0551 H   0  0  0  0  0  0  0  0  0  0  0  0
   15.7273   69.8482   -6.9827 H   0  0  0  0  0  0  0  0  0  0  0  0
   17.0827   71.3843   -3.9680 O   0  0  0  0  0  0  0  0  0  0  0  0
   19.8575   69.3191   -0.9222 O   0  0  0  0  0  0  0  0  0  0  0  0
   19.0292   70.3651   -4.7616 N   0  0  0  0  0  0  0  0  0  0  0  0
   18.4656   70.3553   -2.4532 N   0  0  0  0  0  0  0  0  0  0  0  0
   18.1173   70.7499   -3.7513 C   0  0  0  0  0  0  0  0  0  0  0  0
   20.1739   69.6472   -4.4330 C   0  0  0  0  0  0  0  0  0  0  0  0
   20.4923   69.2797   -3.1901 C   0  0  0  0  0  0  0  0  0  0  0  0
   19.5926   69.6422   -2.0760 C   0  0  0  0  0  0  0  0  0  0  0  0
   17.8454   70.6126   -1.7329 H   0  0  0  0  0  0  0  0  0  0  0  0
   19.3454   74.1999   -2.5641 O   0  0  0  0  0  0  0  0  0  0  0  0
   20.9134   73.8531   -2.3788 P   0  0  2  0  0  0  0  0  0  0  0  0
   21.6492   75.2380   -2.7764 O   0  0  0  0  0  0  0  0  0  0  0  0
   21.3762   72.6589   -3.1622 O   0  0  0  0  0  0  0  0  0  0  0  0
   21.1179   73.7263   -0.7829 O   0  0  0  0  0  0  0  0  0  0  0  0
   23.2073   74.4510    0.0692 O   0  0  0  0  0  0  0  0  0  0  0  0
   21.8939   72.2627    3.3154 O   0  0  0  0  0  0  0  0  0  0  0  0
   21.9356   75.1306    3.4618 O   0  0  0  0  0  0  0  0  0  0  0  0
   21.3746   71.3152    0.6298 O   0  0  0  0  0  0  0  0  0  0  0  0
   21.7539   73.1200    2.1792 C   0  0  1  0  0  0  0  0  0  0  0  0
   22.5758   74.3859    2.4294 C   0  0  1  0  0  0  0  0  0  0  0  0
   22.2582   72.3883    0.9367 C   0  0  2  0  0  0  0  0  0  0  0  0
   22.6925   75.2317    1.1542 C   0  0  1  0  0  0  0  0  0  0  0  0
   22.3840   73.3308   -0.2616 C   0  0  1  0  0  0  0  0  0  0  0  0
   21.5750   72.7212    4.1076 H   0  0  0  0  0  0  0  0  0  0  0  0
   21.8677   74.5851    4.2611 H   0  0  0  0  0  0  0  0  0  0  0  0
   21.3038   70.7257    1.3962 H   0  0  0  0  0  0  0  0  0  0  0  0
   23.0672   77.3038    2.2833 O   0  0  0  0  0  0  0  0  0  0  0  0
   23.6376   76.4170    1.3385 C   0  0  0  0  0  0  0  0  0  0  0  0
   23.6580   78.0630    2.4109 H   0  0  0  0  0  0  0  0  0  0  0  0
 25 28  1  0
 25 24  1  0
 25 26  1  6
 25 27  2  0
  1  4  1  0
  1 24  1  0
  1  2  1  1
  1  3  2  0
  6 11  1  0
  6 12  1  0
 29 36  1  0
 29 37  1  0
  9  7  1  6
  7 13  1  0
 10  8  1  6
  8 14  1  0
 37 28  1  1
  4  5  1  0
 33 30  1  1
 30 38  1  0
 34 31  1  1
 31 39  1  0
 35 32  1  6
 32 40  1  0
 41 42  1  0
 41 43  1  0
 15 19  2  0
 16 22  2  0
 12 17  1  1
 17 19  1  0
 17 20  1  0
 18 19  1  0
 18 22  1  0
 18 23  1  0
  9 10  1  0
  9 11  1  0
 10 12  1  0
 11  5  1  1
 33 34  1  0
 33 35  1  0
 34 36  1  0
 35 37  1  0
 36 42  1  1
 20 21  2  0
 21 22  1  0
M  CHG  2   2  -1  26  -1
M  END
>  <COMPND>  (37) 
    8629 

>  <AUTHOR>  (37) 
    GENERATED BY OPEN BABEL 3.1.1

>  <MASTER>  (37) 
        0    0    0    0    0    0    0    0   58    0   58    0

>  <minimizedAffinity>  (37) 
-6.83460

>  <CNNscore>  (37) 
0.3424538970

>  <CNNaffinity>  (37) 
3.8425629139

>  <CNN_VS>  (37) 
1.3159006834

>  <CNNaffinity_variance>  (37) 
0.3669368327

$$$$
38
     RDKit          3D

 43 45  0  0  0  0  0  0  0  0999 V2000
   18.8558   74.4246   -4.5374 P   0  0  2  0  0  0  0  0  0  0  0  0
   18.5071   75.3819   -3.2807 O   0  0  0  0  0  0  0  0  0  0  0  0
   18.6043   75.0324   -5.8860 O   0  0  0  0  0  0  0  0  0  0  0  0
   18.0487   73.0585   -4.2208 O   0  0  0  0  0  0  0  0  0  0  0  0
   18.1127   72.5237   -2.9102 C   0  0  0  0  0  0  0  0  0  0  0  0
   17.0579   70.8245   -4.2421 O   0  0  0  0  0  0  0  0  0  0  0  0
   18.1666   68.8552   -2.2715 O   0  0  0  0  0  0  0  0  0  0  0  0
   19.9059   68.6480   -4.3616 O   0  0  0  0  0  0  0  0  0  0  0  0
   18.7448   70.0637   -2.7619 C   0  0  1  0  0  0  0  0  0  0  0  0
   19.2287   69.8756   -4.1846 C   0  0  2  0  0  0  0  0  0  0  0  0
   17.6251   71.0816   -2.9388 C   0  0  1  0  0  0  0  0  0  0  0  0
   17.9307   69.9459   -4.9709 C   0  0  2  0  0  0  0  0  0  0  0  0
   18.8627   68.1898   -2.1503 H   0  0  0  0  0  0  0  0  0  0  0  0
   20.7246   68.6523   -3.8417 H   0  0  0  0  0  0  0  0  0  0  0  0
   15.9442   69.9633   -6.9787 O   0  0  0  0  0  0  0  0  0  0  0  0
   18.7692   71.9771  -10.0127 O   0  0  0  0  0  0  0  0  0  0  0  0
   18.1198   70.4690   -6.2945 N   0  0  0  0  0  0  0  0  0  0  0  0
   17.3524   70.9662   -8.4877 N   0  0  0  0  0  0  0  0  0  0  0  0
   17.0581   70.4289   -7.2281 C   0  0  0  0  0  0  0  0  0  0  0  0
   19.3471   71.0145   -6.6553 C   0  0  0  0  0  0  0  0  0  0  0  0
   19.6120   71.5216   -7.8610 C   0  0  0  0  0  0  0  0  0  0  0  0
   18.5567   71.5183   -8.8946 C   0  0  0  0  0  0  0  0  0  0  0  0
   16.6279   70.9487   -9.1545 H   0  0  0  0  0  0  0  0  0  0  0  0
   20.3938   74.0099   -4.2627 O   0  0  0  0  0  0  0  0  0  0  0  0
   21.5416   74.7190   -3.3723 P   0  0  2  0  0  0  0  0  0  0  0  0
   21.2356   76.2965   -3.5604 O   0  0  0  0  0  0  0  0  0  0  0  0
   22.9406   74.3121   -3.7346 O   0  0  0  0  0  0  0  0  0  0  0  0
   21.1274   74.4027   -1.8448 O   0  0  0  0  0  0  0  0  0  0  0  0
   22.0044   74.2281    0.3500 O   0  0  0  0  0  0  0  0  0  0  0  0
   20.5726   70.3808   -0.0964 O   0  0  0  0  0  0  0  0  0  0  0  0
   19.2014   72.2115    1.6404 O   0  0  0  0  0  0  0  0  0  0  0  0
   21.8172   71.7273   -2.3364 O   0  0  0  0  0  0  0  0  0  0  0  0
   20.5732   71.7998   -0.2752 C   0  0  1  0  0  0  0  0  0  0  0  0
   20.4986   72.4570    1.1044 C   0  0  1  0  0  0  0  0  0  0  0  0
   21.8544   72.2113   -0.9982 C   0  0  2  0  0  0  0  0  0  0  0  0
   20.7627   73.9660    1.0142 C   0  0  1  0  0  0  0  0  0  0  0  0
   22.0460   73.7289   -0.9883 C   0  0  1  0  0  0  0  0  0  0  0  0
   19.7615   70.1129    0.3617 H   0  0  0  0  0  0  0  0  0  0  0  0
   19.0471   71.2550    1.6917 H   0  0  0  0  0  0  0  0  0  0  0  0
   21.6959   70.7655   -2.3290 H   0  0  0  0  0  0  0  0  0  0  0  0
   19.7420   74.1837    3.1636 O   0  0  0  0  0  0  0  0  0  0  0  0
   20.8492   74.6150    2.3939 C   0  0  0  0  0  0  0  0  0  0  0  0
   19.7840   74.5886    4.0445 H   0  0  0  0  0  0  0  0  0  0  0  0
 25 28  1  0
 25 24  1  0
 25 26  1  1
 25 27  2  0
  1  4  1  0
  1 24  1  0
  1  2  1  1
  1  3  2  0
  6 11  1  0
  6 12  1  0
 29 36  1  0
 29 37  1  0
  9  7  1  6
  7 13  1  0
 10  8  1  1
  8 14  1  0
 37 28  1  6
  4  5  1  0
 33 30  1  1
 30 38  1  0
 34 31  1  6
 31 39  1  0
 35 32  1  6
 32 40  1  0
 41 42  1  0
 41 43  1  0
 15 19  2  0
 16 22  2  0
 12 17  1  6
 17 19  1  0
 17 20  1  0
 18 19  1  0
 18 22  1  0
 18 23  1  0
  9 10  1  0
  9 11  1  0
 10 12  1  0
 11  5  1  6
 33 34  1  0
 33 35  1  0
 34 36  1  0
 35 37  1  0
 36 42  1  1
 20 21  2  0
 21 22  1  0
M  CHG  2   2  -1  26  -1
M  END
>  <COMPND>  (38) 
    8629 

>  <AUTHOR>  (38) 
    GENERATED BY OPEN BABEL 3.1.1

>  <MASTER>  (38) 
        0    0    0    0    0    0    0    0   58    0   58    0

>  <minimizedAffinity>  (38) 
-6.95486

>  <CNNscore>  (38) 
0.3417948484

>  <CNNaffinity>  (38) 
4.0755085945

>  <CNN_VS>  (38) 
1.3929878473

>  <CNNaffinity_variance>  (38) 
0.2444441020

$$$$
39
     RDKit          3D

 43 45  0  0  0  0  0  0  0  0999 V2000
   19.4538   74.6199   -4.4679 P   0  0  2  0  0  0  0  0  0  0  0  0
   19.4820   76.2374   -4.4537 O   0  0  0  0  0  0  0  0  0  0  0  0
   18.2435   74.0128   -5.1146 O   0  0  0  0  0  0  0  0  0  0  0  0
   19.7026   74.2135   -2.9217 O   0  0  0  0  0  0  0  0  0  0  0  0
   19.0295   74.9466   -1.9132 C   0  0  0  0  0  0  0  0  0  0  0  0
   18.7801   72.6425   -1.2785 O   0  0  0  0  0  0  0  0  0  0  0  0
   17.4799   73.6663    1.2219 O   0  0  0  0  0  0  0  0  0  0  0  0
   20.0010   73.0617    2.0676 O   0  0  0  0  0  0  0  0  0  0  0  0
   18.5670   74.2168    0.4799 C   0  0  1  0  0  0  0  0  0  0  0  0
   19.8243   73.4040    0.7080 C   0  0  2  0  0  0  0  0  0  0  0  0
   18.2957   73.9744   -0.9997 C   0  0  1  0  0  0  0  0  0  0  0  0
   19.5795   72.1909   -0.1732 C   0  0  2  0  0  0  0  0  0  0  0  0
   17.6305   73.8093    2.1699 H   0  0  0  0  0  0  0  0  0  0  0  0
   20.1534   73.8668    2.5867 H   0  0  0  0  0  0  0  0  0  0  0  0
   19.9384   69.4576   -0.7885 O   0  0  0  0  0  0  0  0  0  0  0  0
   24.3014   70.1389   -2.1078 O   0  0  0  0  0  0  0  0  0  0  0  0
   20.7989   71.6267   -0.6794 N   0  0  0  0  0  0  0  0  0  0  0  0
   22.1105   69.7991   -1.4451 N   0  0  0  0  0  0  0  0  0  0  0  0
   20.8750   70.2415   -0.9552 C   0  0  0  0  0  0  0  0  0  0  0  0
   21.9025   72.4442   -0.8978 C   0  0  0  0  0  0  0  0  0  0  0  0
   23.0739   72.0065   -1.3642 C   0  0  0  0  0  0  0  0  0  0  0  0
   23.2370   70.5722   -1.6776 C   0  0  0  0  0  0  0  0  0  0  0  0
   22.1870   68.8377   -1.6439 H   0  0  0  0  0  0  0  0  0  0  0  0
   20.8567   74.2381   -5.1743 O   0  0  0  0  0  0  0  0  0  0  0  0
   21.4175   72.8263   -5.7266 P   0  0  2  0  0  0  0  0  0  0  0  0
   21.2611   71.8410   -4.4529 O   0  0  0  0  0  0  0  0  0  0  0  0
   22.8074   72.8942   -6.2900 O   0  0  0  0  0  0  0  0  0  0  0  0
   20.2960   72.3221   -6.7721 O   0  0  0  0  0  0  0  0  0  0  0  0
   19.0861   70.3977   -6.1017 O   0  0  0  0  0  0  0  0  0  0  0  0
   18.0404   70.4764  -10.0956 O   0  0  0  0  0  0  0  0  0  0  0  0
   16.0988   71.1999   -8.1069 O   0  0  0  0  0  0  0  0  0  0  0  0
   20.7336   71.1721   -9.2942 O   0  0  0  0  0  0  0  0  0  0  0  0
   18.3748   71.0412   -8.8249 C   0  0  1  0  0  0  0  0  0  0  0  0
   17.3393   70.5684   -7.8026 C   0  0  1  0  0  0  0  0  0  0  0  0
   19.7747   70.5782   -8.4257 C   0  0  2  0  0  0  0  0  0  0  0  0
   17.7766   70.9112   -6.3721 C   0  0  1  0  0  0  0  0  0  0  0  0
   20.0908   70.9257   -6.9699 C   0  0  1  0  0  0  0  0  0  0  0  0
   17.1528   70.7669  -10.3551 H   0  0  0  0  0  0  0  0  0  0  0  0
   15.8342   70.9757   -9.0130 H   0  0  0  0  0  0  0  0  0  0  0  0
   20.5226   70.9444  -10.2126 H   0  0  0  0  0  0  0  0  0  0  0  0
   15.8511   69.5474   -5.9965 O   0  0  0  0  0  0  0  0  0  0  0  0
   16.8378   70.3112   -5.3277 C   0  0  0  0  0  0  0  0  0  0  0  0
   15.2465   69.1591   -5.3442 H   0  0  0  0  0  0  0  0  0  0  0  0
 25 28  1  0
 25 24  1  0
 25 26  1  1
 25 27  2  0
  1  4  1  0
  1 24  1  0
  1  2  1  1
  1  3  2  0
  6 11  1  0
  6 12  1  0
 29 36  1  0
 29 37  1  0
  9  7  1  1
  7 13  1  0
 10  8  1  1
  8 14  1  0
 37 28  1  6
  4  5  1  0
 33 30  1  6
 30 38  1  0
 34 31  1  6
 31 39  1  0
 35 32  1  6
 32 40  1  0
 41 42  1  0
 41 43  1  0
 15 19  2  0
 16 22  2  0
 12 17  1  6
 17 19  1  0
 17 20  1  0
 18 19  1  0
 18 22  1  0
 18 23  1  0
  9 10  1  0
  9 11  1  0
 10 12  1  0
 11  5  1  6
 33 34  1  0
 33 35  1  0
 34 36  1  0
 35 37  1  0
 36 42  1  1
 20 21  2  0
 21 22  1  0
M  CHG  2   2  -1  26  -1
M  END
>  <COMPND>  (39) 
    8629 

>  <AUTHOR>  (39) 
    GENERATED BY OPEN BABEL 3.1.1

>  <MASTER>  (39) 
        0    0    0    0    0    0    0    0   58    0   58    0

>  <minimizedAffinity>  (39) 
-7.85699

>  <CNNscore>  (39) 
0.3417712748

>  <CNNaffinity>  (39) 
3.9313557148

>  <CNN_VS>  (39) 
1.3436244726

>  <CNNaffinity_variance>  (39) 
0.7304638624

$$$$
40
     RDKit          3D

 43 45  0  0  0  0  0  0  0  0999 V2000
   19.2616   73.2750   -3.0779 P   0  0  2  0  0  0  0  0  0  0  0  0
   19.1093   74.7661   -2.4690 O   0  0  0  0  0  0  0  0  0  0  0  0
   18.0113   72.7064   -3.6820 O   0  0  0  0  0  0  0  0  0  0  0  0
   19.9051   72.4229   -1.8623 O   0  0  0  0  0  0  0  0  0  0  0  0
   20.1459   73.0792   -0.6299 C   0  0  0  0  0  0  0  0  0  0  0  0
   22.2033   74.0261    0.1729 O   0  0  0  0  0  0  0  0  0  0  0  0
   22.8984   71.2595    1.0968 O   0  0  0  0  0  0  0  0  0  0  0  0
   22.0768   72.4664    3.4000 O   0  0  0  0  0  0  0  0  0  0  0  0
   21.6296   71.9114    1.0755 C   0  0  1  0  0  0  0  0  0  0  0  0
   21.5513   72.9457    2.1789 C   0  0  2  0  0  0  0  0  0  0  0  0
   21.5678   72.7770   -0.1768 C   0  0  1  0  0  0  0  0  0  0  0  0
   22.3684   74.0877    1.5990 C   0  0  2  0  0  0  0  0  0  0  0  0
   22.9613   70.7004    1.8876 H   0  0  0  0  0  0  0  0  0  0  0  0
   21.5224   71.7413    3.7282 H   0  0  0  0  0  0  0  0  0  0  0  0
   23.6177   75.5563    3.6631 O   0  0  0  0  0  0  0  0  0  0  0  0
   20.5751   78.9995    3.3042 O   0  0  0  0  0  0  0  0  0  0  0  0
   21.9240   75.3709    2.0649 N   0  0  0  0  0  0  0  0  0  0  0  0
   22.1018   77.2696    3.4825 N   0  0  0  0  0  0  0  0  0  0  0  0
   22.6214   76.0240    3.1078 C   0  0  0  0  0  0  0  0  0  0  0  0
   20.8084   75.9690    1.4889 C   0  0  0  0  0  0  0  0  0  0  0  0
   20.3249   77.1568    1.8587 C   0  0  0  0  0  0  0  0  0  0  0  0
   20.9954   77.9051    2.9414 C   0  0  0  0  0  0  0  0  0  0  0  0
   22.5711   77.7429    4.2074 H   0  0  0  0  0  0  0  0  0  0  0  0
   20.4974   73.4278   -4.1087 O   0  0  0  0  0  0  0  0  0  0  0  0
   21.2151   72.3472   -5.0731 P   0  0  2  0  0  0  0  0  0  0  0  0
   21.2392   71.0038   -4.1718 O   0  0  0  0  0  0  0  0  0  0  0  0
   22.5608   72.7753   -5.5827 O   0  0  0  0  0  0  0  0  0  0  0  0
   20.1282   72.0443   -6.2272 O   0  0  0  0  0  0  0  0  0  0  0  0
   18.8166   70.0828   -6.0062 O   0  0  0  0  0  0  0  0  0  0  0  0
   18.2142   70.8304  -10.0223 O   0  0  0  0  0  0  0  0  0  0  0  0
   16.0812   71.2993   -8.1572 O   0  0  0  0  0  0  0  0  0  0  0  0
   20.8165   71.2930   -8.8420 O   0  0  0  0  0  0  0  0  0  0  0  0
   18.4186   71.1744   -8.6493 C   0  0  1  0  0  0  0  0  0  0  0  0
   17.2691   70.5834   -7.8306 C   0  0  1  0  0  0  0  0  0  0  0  0
   19.7577   70.6040   -8.1858 C   0  0  2  0  0  0  0  0  0  0  0  0
   17.5543   70.6795   -6.3257 C   0  0  1  0  0  0  0  0  0  0  0  0
   19.9197   70.7051   -6.6680 C   0  0  1  0  0  0  0  0  0  0  0  0
   17.3658   71.1900  -10.3230 H   0  0  0  0  0  0  0  0  0  0  0  0
   15.9129   71.2311   -9.1102 H   0  0  0  0  0  0  0  0  0  0  0  0
   20.7027   71.2213   -9.8021 H   0  0  0  0  0  0  0  0  0  0  0  0
   15.4567   69.5358   -6.3604 O   0  0  0  0  0  0  0  0  0  0  0  0
   16.4961   69.9560   -5.4958 C   0  0  0  0  0  0  0  0  0  0  0  0
   14.7761   69.0734   -5.8459 H   0  0  0  0  0  0  0  0  0  0  0  0
 25 28  1  0
 25 24  1  0
 25 26  1  1
 25 27  2  0
  1  4  1  0
  1 24  1  0
  1  2  1  1
  1  3  2  0
  6 11  1  0
  6 12  1  0
 29 36  1  0
 29 37  1  0
  9  7  1  1
  7 13  1  0
 10  8  1  1
  8 14  1  0
 37 28  1  6
  4  5  1  0
 33 30  1  6
 30 38  1  0
 34 31  1  1
 31 39  1  0
 35 32  1  6
 32 40  1  0
 41 42  1  0
 41 43  1  0
 15 19  2  0
 16 22  2  0
 12 17  1  1
 17 19  1  0
 17 20  1  0
 18 19  1  0
 18 22  1  0
 18 23  1  0
  9 10  1  0
  9 11  1  0
 10 12  1  0
 11  5  1  1
 33 34  1  0
 33 35  1  0
 34 36  1  0
 35 37  1  0
 36 42  1  1
 20 21  2  0
 21 22  1  0
M  CHG  2   2  -1  26  -1
M  END
>  <COMPND>  (40) 
    8629 

>  <AUTHOR>  (40) 
    GENERATED BY OPEN BABEL 3.1.1

>  <MASTER>  (40) 
        0    0    0    0    0    0    0    0   58    0   58    0

>  <minimizedAffinity>  (40) 
-7.15118

>  <CNNscore>  (40) 
0.3311025202

>  <CNNaffinity>  (40) 
4.0275106430

>  <CNN_VS>  (40) 
1.3335189819

>  <CNNaffinity_variance>  (40) 
0.0315233544

$$$$
41
     RDKit          3D

 43 45  0  0  0  0  0  0  0  0999 V2000
   20.3812   70.5916   -1.1675 P   0  0  2  0  0  0  0  0  0  0  0  0
   21.8139   69.8451   -1.0810 O   0  0  0  0  0  0  0  0  0  0  0  0
   19.9480   71.2798    0.0935 O   0  0  0  0  0  0  0  0  0  0  0  0
   19.3804   69.4482   -1.7234 O   0  0  0  0  0  0  0  0  0  0  0  0
   19.0018   69.4864   -3.0883 C   0  0  0  0  0  0  0  0  0  0  0  0
   17.9281   71.2117   -4.3707 O   0  0  0  0  0  0  0  0  0  0  0  0
   15.3672   70.2974   -3.1071 O   0  0  0  0  0  0  0  0  0  0  0  0
   15.2555   69.1464   -5.5767 O   0  0  0  0  0  0  0  0  0  0  0  0
   16.4948   69.5271   -3.5199 C   0  0  1  0  0  0  0  0  0  0  0  0
   16.5305   69.4147   -5.0298 C   0  0  2  0  0  0  0  0  0  0  0  0
   17.7501   70.3412   -3.2319 C   0  0  1  0  0  0  0  0  0  0  0  0
   17.0651   70.7779   -5.4347 C   0  0  2  0  0  0  0  0  0  0  0  0
   14.5534   69.7979   -3.2809 H   0  0  0  0  0  0  0  0  0  0  0  0
   14.9589   68.2684   -5.2903 H   0  0  0  0  0  0  0  0  0  0  0  0
   15.9256   70.8727   -8.0174 O   0  0  0  0  0  0  0  0  0  0  0  0
   20.0527   70.5855  -10.0485 O   0  0  0  0  0  0  0  0  0  0  0  0
   17.8185   70.7301   -6.6560 N   0  0  0  0  0  0  0  0  0  0  0  0
   17.9815   70.7298   -9.0266 N   0  0  0  0  0  0  0  0  0  0  0  0
   17.1495   70.7834   -7.9010 C   0  0  0  0  0  0  0  0  0  0  0  0
   19.2050   70.6317   -6.6115 C   0  0  0  0  0  0  0  0  0  0  0  0
   19.9838   70.5804   -7.6941 C   0  0  0  0  0  0  0  0  0  0  0  0
   19.3638   70.6307   -9.0339 C   0  0  0  0  0  0  0  0  0  0  0  0
   17.5375   70.7650   -9.9049 H   0  0  0  0  0  0  0  0  0  0  0  0
   20.5578   71.5706   -2.4416 O   0  0  0  0  0  0  0  0  0  0  0  0
   20.5003   73.1818   -2.5583 P   0  0  2  0  0  0  0  0  0  0  0  0
   21.5586   73.6730   -1.4375 O   0  0  0  0  0  0  0  0  0  0  0  0
   19.1236   73.7611   -2.4061 O   0  0  0  0  0  0  0  0  0  0  0  0
   21.2143   73.5151   -3.9669 O   0  0  0  0  0  0  0  0  0  0  0  0
   21.5350   75.8602   -3.8464 O   0  0  0  0  0  0  0  0  0  0  0  0
   23.4243   75.1198   -7.4427 O   0  0  0  0  0  0  0  0  0  0  0  0
   24.9916   75.7627   -5.1236 O   0  0  0  0  0  0  0  0  0  0  0  0
   21.0049   73.6844   -6.7602 O   0  0  0  0  0  0  0  0  0  0  0  0
   23.0165   74.8339   -6.1020 C   0  0  1  0  0  0  0  0  0  0  0  0
   23.5774   75.9246   -5.1873 C   0  0  1  0  0  0  0  0  0  0  0  0
   21.4905   74.8112   -6.0385 C   0  0  2  0  0  0  0  0  0  0  0  0
   22.9658   75.8380   -3.7824 C   0  0  1  0  0  0  0  0  0  0  0  0
   20.9857   74.7739   -4.5949 C   0  0  1  0  0  0  0  0  0  0  0  0
   24.3923   75.1351   -7.4900 H   0  0  0  0  0  0  0  0  0  0  0  0
   25.3653   75.8189   -6.0171 H   0  0  0  0  0  0  0  0  0  0  0  0
   21.3311   73.7197   -7.6724 H   0  0  0  0  0  0  0  0  0  0  0  0
   23.7213   76.5099   -1.6176 O   0  0  0  0  0  0  0  0  0  0  0  0
   23.3911   77.0098   -2.9003 C   0  0  0  0  0  0  0  0  0  0  0  0
   23.9942   77.2446   -1.0453 H   0  0  0  0  0  0  0  0  0  0  0  0
 25 28  1  0
 25 24  1  0
 25 26  1  1
 25 27  2  0
  1  4  1  0
  1 24  1  0
  1  2  1  1
  1  3  2  0
  6 11  1  0
  6 12  1  0
 29 36  1  0
 29 37  1  0
  9  7  1  6
  7 13  1  0
 10  8  1  6
  8 14  1  0
 37 28  1  1
  4  5  1  0
 33 30  1  6
 30 38  1  0
 34 31  1  1
 31 39  1  0
 35 32  1  6
 32 40  1  0
 41 42  1  0
 41 43  1  0
 15 19  2  0
 16 22  2  0
 12 17  1  6
 17 19  1  0
 17 20  1  0
 18 19  1  0
 18 22  1  0
 18 23  1  0
  9 10  1  0
  9 11  1  0
 10 12  1  0
 11  5  1  6
 33 34  1  0
 33 35  1  0
 34 36  1  0
 35 37  1  0
 36 42  1  1
 20 21  2  0
 21 22  1  0
M  CHG  2   2  -1  26  -1
M  END
>  <COMPND>  (41) 
    8629 

>  <AUTHOR>  (41) 
    GENERATED BY OPEN BABEL 3.1.1

>  <MASTER>  (41) 
        0    0    0    0    0    0    0    0   58    0   58    0

>  <minimizedAffinity>  (41) 
-7.06871

>  <CNNscore>  (41) 
0.7430954576

>  <CNNaffinity>  (41) 
4.5542001724

>  <CNN_VS>  (41) 
3.3842055798

>  <CNNaffinity_variance>  (41) 
0.2585489154

$$$$
42
     RDKit          3D

 43 45  0  0  0  0  0  0  0  0999 V2000
   21.4718   70.1567   -2.4687 P   0  0  2  0  0  0  0  0  0  0  0  0
   23.0164   69.8364   -2.8279 O   0  0  0  0  0  0  0  0  0  0  0  0
   21.0030   69.6172   -1.1494 O   0  0  0  0  0  0  0  0  0  0  0  0
   20.6561   69.6425   -3.7680 O   0  0  0  0  0  0  0  0  0  0  0  0
   19.4242   68.9707   -3.5707 C   0  0  0  0  0  0  0  0  0  0  0  0
   18.4661   70.9298   -4.5794 O   0  0  0  0  0  0  0  0  0  0  0  0
   15.9786   70.2788   -3.0369 O   0  0  0  0  0  0  0  0  0  0  0  0
   15.3841   69.3652   -5.5366 O   0  0  0  0  0  0  0  0  0  0  0  0
   16.9171   69.3962   -3.6497 C   0  0  1  0  0  0  0  0  0  0  0  0
   16.7438   69.4066   -5.1542 C   0  0  2  0  0  0  0  0  0  0  0  0
   18.3060   70.0005   -3.4853 C   0  0  1  0  0  0  0  0  0  0  0  0
   17.4202   70.7111   -5.5402 C   0  0  2  0  0  0  0  0  0  0  0  0
   15.0840   69.9137   -3.1289 H   0  0  0  0  0  0  0  0  0  0  0  0
   14.9987   68.5162   -5.2693 H   0  0  0  0  0  0  0  0  0  0  0  0
   15.9291   70.7205   -7.9390 O   0  0  0  0  0  0  0  0  0  0  0  0
   19.7397   70.5148  -10.5233 O   0  0  0  0  0  0  0  0  0  0  0  0
   17.9970   70.6611   -6.8541 N   0  0  0  0  0  0  0  0  0  0  0  0
   17.8277   70.6182   -9.2238 N   0  0  0  0  0  0  0  0  0  0  0  0
   17.1596   70.6697   -7.9938 C   0  0  0  0  0  0  0  0  0  0  0  0
   19.3786   70.6047   -7.0027 C   0  0  0  0  0  0  0  0  0  0  0  0
   20.0000   70.5548   -8.1827 C   0  0  0  0  0  0  0  0  0  0  0  0
   19.1979   70.5599   -9.4231 C   0  0  0  0  0  0  0  0  0  0  0  0
   17.2646   70.6228  -10.0318 H   0  0  0  0  0  0  0  0  0  0  0  0
   21.3934   71.7656   -2.6037 O   0  0  0  0  0  0  0  0  0  0  0  0
   21.9313   72.9399   -1.6318 P   0  0  2  0  0  0  0  0  0  0  0  0
   22.6445   73.9706   -2.6548 O   0  0  0  0  0  0  0  0  0  0  0  0
   22.8170   72.4600   -0.5186 O   0  0  0  0  0  0  0  0  0  0  0  0
   20.5986   73.7078   -1.1425 O   0  0  0  0  0  0  0  0  0  0  0  0
   19.1370   73.0418    0.6001 O   0  0  0  0  0  0  0  0  0  0  0  0
   16.4104   74.9226   -1.8655 O   0  0  0  0  0  0  0  0  0  0  0  0
   17.2018   76.1793    0.5926 O   0  0  0  0  0  0  0  0  0  0  0  0
   18.5413   73.3355   -3.0144 O   0  0  0  0  0  0  0  0  0  0  0  0
   17.6820   74.7223   -1.2424 C   0  0  1  0  0  0  0  0  0  0  0  0
   17.4947   74.8220    0.2727 C   0  0  1  0  0  0  0  0  0  0  0  0
   18.2156   73.3441   -1.6287 C   0  0  2  0  0  0  0  0  0  0  0  0
   18.7528   74.3568    1.0183 C   0  0  1  0  0  0  0  0  0  0  0  0
   19.4380   72.9575   -0.7943 C   0  0  1  0  0  0  0  0  0  0  0  0
   16.0662   75.7961   -1.6247 H   0  0  0  0  0  0  0  0  0  0  0  0
   16.4056   76.4607    0.1151 H   0  0  0  0  0  0  0  0  0  0  0  0
   17.7592   73.5816   -3.5318 H   0  0  0  0  0  0  0  0  0  0  0  0
   19.7961   74.2003    3.1621 O   0  0  0  0  0  0  0  0  0  0  0  0
   18.5338   74.2984    2.5285 C   0  0  0  0  0  0  0  0  0  0  0  0
   19.6723   74.1626    4.1239 H   0  0  0  0  0  0  0  0  0  0  0  0
 25 28  1  0
 25 24  1  0
 25 26  1  6
 25 27  2  0
  1  4  1  0
  1 24  1  0
  1  2  1  6
  1  3  2  0
  6 11  1  0
  6 12  1  0
 29 36  1  0
 29 37  1  0
  9  7  1  1
  7 13  1  0
 10  8  1  1
  8 14  1  0
 37 28  1  1
  4  5  1  0
 33 30  1  6
 30 38  1  0
 34 31  1  6
 31 39  1  0
 35 32  1  6
 32 40  1  0
 41 42  1  0
 41 43  1  0
 15 19  2  0
 16 22  2  0
 12 17  1  6
 17 19  1  0
 17 20  1  0
 18 19  1  0
 18 22  1  0
 18 23  1  0
  9 10  1  0
  9 11  1  0
 10 12  1  0
 11  5  1  6
 33 34  1  0
 33 35  1  0
 34 36  1  0
 35 37  1  0
 36 42  1  1
 20 21  2  0
 21 22  1  0
M  CHG  2   2  -1  26  -1
M  END
>  <COMPND>  (42) 
    8629 

>  <AUTHOR>  (42) 
    GENERATED BY OPEN BABEL 3.1.1

>  <MASTER>  (42) 
        0    0    0    0    0    0    0    0   58    0   58    0

>  <minimizedAffinity>  (42) 
-7.03998

>  <CNNscore>  (42) 
0.7399027944

>  <CNNaffinity>  (42) 
4.5651254654

>  <CNN_VS>  (42) 
3.3777492046

>  <CNNaffinity_variance>  (42) 
0.0492697954

$$$$
43
     RDKit          3D

 43 45  0  0  0  0  0  0  0  0999 V2000
   22.2490   71.2777   -3.0288 P   0  0  2  0  0  0  0  0  0  0  0  0
   23.0703   72.5298   -3.6413 O   0  0  0  0  0  0  0  0  0  0  0  0
   23.0467   70.0181   -2.8602 O   0  0  0  0  0  0  0  0  0  0  0  0
   20.9475   71.1627   -3.9832 O   0  0  0  0  0  0  0  0  0  0  0  0
   19.8861   70.3150   -3.5798 C   0  0  0  0  0  0  0  0  0  0  0  0
   18.5029   71.7838   -4.8848 O   0  0  0  0  0  0  0  0  0  0  0  0
   16.2682   71.0135   -3.0400 O   0  0  0  0  0  0  0  0  0  0  0  0
   15.7768   69.4808   -5.2414 O   0  0  0  0  0  0  0  0  0  0  0  0
   17.3441   70.2182   -3.5352 C   0  0  1  0  0  0  0  0  0  0  0  0
   17.1125   69.8675   -4.9902 C   0  0  2  0  0  0  0  0  0  0  0  0
   18.5829   71.1016   -3.6142 C   0  0  1  0  0  0  0  0  0  0  0  0
   17.4876   71.1627   -5.6900 C   0  0  2  0  0  0  0  0  0  0  0  0
   15.4658   70.4706   -2.9805 H   0  0  0  0  0  0  0  0  0  0  0  0
   15.5867   68.6520   -4.7748 H   0  0  0  0  0  0  0  0  0  0  0  0
   15.8966   70.8266   -7.9995 O   0  0  0  0  0  0  0  0  0  0  0  0
   19.5979   70.3178  -10.6982 O   0  0  0  0  0  0  0  0  0  0  0  0
   18.0093   70.9413   -7.0092 N   0  0  0  0  0  0  0  0  0  0  0  0
   17.7409   70.5737   -9.3414 N   0  0  0  0  0  0  0  0  0  0  0  0
   17.1244   70.7840   -8.1013 C   0  0  0  0  0  0  0  0  0  0  0  0
   19.3841   70.8823   -7.2098 C   0  0  0  0  0  0  0  0  0  0  0  0
   19.9560   70.6798   -8.3986 C   0  0  0  0  0  0  0  0  0  0  0  0
   19.1023   70.5058   -9.5914 C   0  0  0  0  0  0  0  0  0  0  0  0
   17.1442   70.4611  -10.1167 H   0  0  0  0  0  0  0  0  0  0  0  0
   21.6412   71.8780   -1.6565 O   0  0  0  0  0  0  0  0  0  0  0  0
   21.3787   71.1857   -0.2196 P   0  0  2  0  0  0  0  0  0  0  0  0
   22.8654   70.7828    0.2753 O   0  0  0  0  0  0  0  0  0  0  0  0
   20.4070   70.0419   -0.2559 O   0  0  0  0  0  0  0  0  0  0  0  0
   20.9433   72.4029    0.7468 O   0  0  0  0  0  0  0  0  0  0  0  0
   19.6763   74.4056    0.7246 O   0  0  0  0  0  0  0  0  0  0  0  0
   23.3003   75.9314    1.9854 O   0  0  0  0  0  0  0  0  0  0  0  0
   21.1254   75.7196    3.8490 O   0  0  0  0  0  0  0  0  0  0  0  0
   23.2316   73.8386   -0.0133 O   0  0  0  0  0  0  0  0  0  0  0  0
   22.2611   74.9536    1.8884 C   0  0  1  0  0  0  0  0  0  0  0  0
   20.9727   75.5666    2.4407 C   0  0  1  0  0  0  0  0  0  0  0  0
   22.0834   74.5577    0.4238 C   0  0  2  0  0  0  0  0  0  0  0  0
   19.7593   74.6807    2.1278 C   0  0  1  0  0  0  0  0  0  0  0  0
   20.8212   73.7193    0.2145 C   0  0  1  0  0  0  0  0  0  0  0  0
   23.4185   76.1867    2.9130 H   0  0  0  0  0  0  0  0  0  0  0  0
   21.8953   76.2806    4.0330 H   0  0  0  0  0  0  0  0  0  0  0  0
   24.0238   74.3801    0.1242 H   0  0  0  0  0  0  0  0  0  0  0  0
   18.6658   76.7411    2.6456 O   0  0  0  0  0  0  0  0  0  0  0  0
   18.4456   75.3474    2.5301 C   0  0  0  0  0  0  0  0  0  0  0  0
   17.8380   77.1785    2.9009 H   0  0  0  0  0  0  0  0  0  0  0  0
 25 28  1  0
 25 24  1  0
 25 26  1  1
 25 27  2  0
  1  4  1  0
  1 24  1  0
  1  2  1  6
  1  3  2  0
  6 11  1  0
  6 12  1  0
 29 36  1  0
 29 37  1  0
  9  7  1  6
  7 13  1  0
 10  8  1  1
  8 14  1  0
 37 28  1  1
  4  5  1  0
 33 30  1  6
 30 38  1  0
 34 31  1  1
 31 39  1  0
 35 32  1  1
 32 40  1  0
 41 42  1  0
 41 43  1  0
 15 19  2  0
 16 22  2  0
 12 17  1  6
 17 19  1  0
 17 20  1  0
 18 19  1  0
 18 22  1  0
 18 23  1  0
  9 10  1  0
  9 11  1  0
 10 12  1  0
 11  5  1  6
 33 34  1  0
 33 35  1  0
 34 36  1  0
 35 37  1  0
 36 42  1  6
 20 21  2  0
 21 22  1  0
M  CHG  2   2  -1  26  -1
M  END
>  <COMPND>  (43) 
    8629 

>  <AUTHOR>  (43) 
    GENERATED BY OPEN BABEL 3.1.1

>  <MASTER>  (43) 
        0    0    0    0    0    0    0    0   58    0   58    0

>  <minimizedAffinity>  (43) 
-7.09838

>  <CNNscore>  (43) 
0.7000542283

>  <CNNaffinity>  (43) 
4.5560159683

>  <CNN_VS>  (43) 
3.1894581318

>  <CNNaffinity_variance>  (43) 
0.0885862261

$$$$
44
     RDKit          3D

 43 45  0  0  0  0  0  0  0  0999 V2000
   22.0277   74.2310   -4.9177 P   0  0  2  0  0  0  0  0  0  0  0  0
   21.1503   75.5880   -4.8390 O   0  0  0  0  0  0  0  0  0  0  0  0
   23.3783   74.3855   -5.5529 O   0  0  0  0  0  0  0  0  0  0  0  0
   21.0355   73.1675   -5.6265 O   0  0  0  0  0  0  0  0  0  0  0  0
   19.8978   73.6584   -6.3139 C   0  0  0  0  0  0  0  0  0  0  0  0
   19.5552   71.4080   -7.0833 O   0  0  0  0  0  0  0  0  0  0  0  0
   18.3960   72.6314   -9.5632 O   0  0  0  0  0  0  0  0  0  0  0  0
   16.1714   71.9120   -8.1596 O   0  0  0  0  0  0  0  0  0  0  0  0
   18.3053   73.0761   -8.2107 C   0  0  1  0  0  0  0  0  0  0  0  0
   17.3482   72.1982   -7.4317 C   0  0  2  0  0  0  0  0  0  0  0  0
   19.6353   72.7795   -7.5291 C   0  0  1  0  0  0  0  0  0  0  0  0
   18.1925   70.9614   -7.1755 C   0  0  2  0  0  0  0  0  0  0  0  0
   17.5581   72.8105  -10.0191 H   0  0  0  0  0  0  0  0  0  0  0  0
   15.6689   72.7302   -8.2969 H   0  0  0  0  0  0  0  0  0  0  0  0
   15.7278   69.6560   -6.7294 O   0  0  0  0  0  0  0  0  0  0  0  0
   16.9317   68.4517   -2.4467 O   0  0  0  0  0  0  0  0  0  0  0  0
   17.8355   70.2981   -5.9532 N   0  0  0  0  0  0  0  0  0  0  0  0
   16.3293   69.0573   -4.5974 N   0  0  0  0  0  0  0  0  0  0  0  0
   16.5721   69.6739   -5.8314 C   0  0  0  0  0  0  0  0  0  0  0  0
   18.7334   70.2707   -4.8917 C   0  0  0  0  0  0  0  0  0  0  0  0
   18.4861   69.6795   -3.7210 C   0  0  0  0  0  0  0  0  0  0  0  0
   17.1891   69.0042   -3.5118 C   0  0  0  0  0  0  0  0  0  0  0  0
   15.4555   68.6162   -4.4895 H   0  0  0  0  0  0  0  0  0  0  0  0
   22.0603   73.7295   -3.3814 O   0  0  0  0  0  0  0  0  0  0  0  0
   20.9049   73.0913   -2.4483 P   0  0  2  0  0  0  0  0  0  0  0  0
   21.2578   71.5124   -2.4483 O   0  0  0  0  0  0  0  0  0  0  0  0
   19.5074   73.4135   -2.8924 O   0  0  0  0  0  0  0  0  0  0  0  0
   21.2638   73.5892   -0.9556 O   0  0  0  0  0  0  0  0  0  0  0  0
   23.3053   74.3590   -0.0301 O   0  0  0  0  0  0  0  0  0  0  0  0
   21.8692   72.2404    3.2102 O   0  0  0  0  0  0  0  0  0  0  0  0
   21.8753   75.1114    3.2832 O   0  0  0  0  0  0  0  0  0  0  0  0
   21.4810   71.2183    0.5299 O   0  0  0  0  0  0  0  0  0  0  0  0
   21.7719   73.0665    2.0468 C   0  0  1  0  0  0  0  0  0  0  0  0
   22.5688   74.3476    2.3003 C   0  0  1  0  0  0  0  0  0  0  0  0
   22.3390   72.3088    0.8478 C   0  0  2  0  0  0  0  0  0  0  0  0
   22.7343   75.1616    1.0099 C   0  0  1  0  0  0  0  0  0  0  0  0
   22.5091   73.2215   -0.3680 C   0  0  1  0  0  0  0  0  0  0  0  0
   21.5103   72.7154    3.9751 H   0  0  0  0  0  0  0  0  0  0  0  0
   21.7770   74.5859    4.0927 H   0  0  0  0  0  0  0  0  0  0  0  0
   21.3816   70.6479    1.3075 H   0  0  0  0  0  0  0  0  0  0  0  0
   22.9164   77.4063    1.8078 O   0  0  0  0  0  0  0  0  0  0  0  0
   23.6581   76.3618    1.2052 C   0  0  0  0  0  0  0  0  0  0  0  0
   23.4917   78.1768    1.9385 H   0  0  0  0  0  0  0  0  0  0  0  0
 25 28  1  0
 25 24  1  0
 25 26  1  1
 25 27  2  0
  1  4  1  0
  1 24  1  0
  1  2  1  1
  1  3  2  0
  6 11  1  0
  6 12  1  0
 29 36  1  0
 29 37  1  0
  9  7  1  6
  7 13  1  0
 10  8  1  6
  8 14  1  0
 37 28  1  1
  4  5  1  0
 33 30  1  1
 30 38  1  0
 34 31  1  1
 31 39  1  0
 35 32  1  6
 32 40  1  0
 41 42  1  0
 41 43  1  0
 15 19  2  0
 16 22  2  0
 12 17  1  1
 17 19  1  0
 17 20  1  0
 18 19  1  0
 18 22  1  0
 18 23  1  0
  9 10  1  0
  9 11  1  0
 10 12  1  0
 11  5  1  1
 33 34  1  0
 33 35  1  0
 34 36  1  0
 35 37  1  0
 36 42  1  1
 20 21  2  0
 21 22  1  0
M  CHG  2   2  -1  26  -1
M  END
>  <COMPND>  (44) 
    8629 

>  <AUTHOR>  (44) 
    GENERATED BY OPEN BABEL 3.1.1

>  <MASTER>  (44) 
        0    0    0    0    0    0    0    0   58    0   58    0

>  <minimizedAffinity>  (44) 
-6.84394

>  <CNNscore>  (44) 
0.6875895262

>  <CNNaffinity>  (44) 
4.4544234276

>  <CNN_VS>  (44) 
3.0628149509

>  <CNNaffinity_variance>  (44) 
0.0087849367

$$$$
45
     RDKit          3D

 43 45  0  0  0  0  0  0  0  0999 V2000
   22.5755   72.7505   -3.9769 P   0  0  2  0  0  0  0  0  0  0  0  0
   23.7204   72.8592   -5.1148 O   0  0  0  0  0  0  0  0  0  0  0  0
   22.4877   73.9284   -3.0516 O   0  0  0  0  0  0  0  0  0  0  0  0
   22.8631   71.3230   -3.2717 O   0  0  0  0  0  0  0  0  0  0  0  0
   23.5333   71.3084   -2.0233 C   0  0  0  0  0  0  0  0  0  0  0  0
   22.9527   71.1119    0.3001 O   0  0  0  0  0  0  0  0  0  0  0  0
   20.5016   69.6555   -0.6283 O   0  0  0  0  0  0  0  0  0  0  0  0
   19.5436   72.1527   -0.0965 O   0  0  0  0  0  0  0  0  0  0  0  0
   21.1793   70.7568   -1.2311 C   0  0  1  0  0  0  0  0  0  0  0  0
   20.9039   72.0301   -0.4588 C   0  0  2  0  0  0  0  0  0  0  0  0
   22.6744   70.5667   -1.0082 C   0  0  1  0  0  0  0  0  0  0  0  0
   21.8175   71.8725    0.7448 C   0  0  2  0  0  0  0  0  0  0  0  0
   19.5449   69.7547   -0.7580 H   0  0  0  0  0  0  0  0  0  0  0  0
   19.0034   72.2505   -0.8962 H   0  0  0  0  0  0  0  0  0  0  0  0
   21.9360   72.5345    3.4881 O   0  0  0  0  0  0  0  0  0  0  0  0
   23.5805   76.7449    2.5887 O   0  0  0  0  0  0  0  0  0  0  0  0
   22.2730   73.1346    1.2557 N   0  0  0  0  0  0  0  0  0  0  0  0
   22.7549   74.6304    3.0380 N   0  0  0  0  0  0  0  0  0  0  0  0
   22.2922   73.3663    2.6508 C   0  0  0  0  0  0  0  0  0  0  0  0
   22.6947   74.1265    0.3769 C   0  0  0  0  0  0  0  0  0  0  0  0
   23.1319   75.3271    0.7622 C   0  0  0  0  0  0  0  0  0  0  0  0
   23.1835   75.6498    2.2028 C   0  0  0  0  0  0  0  0  0  0  0  0
   22.7768   74.8145    4.0052 H   0  0  0  0  0  0  0  0  0  0  0  0
   21.2353   72.4681   -4.8355 O   0  0  0  0  0  0  0  0  0  0  0  0
   20.2820   73.4680   -5.6748 P   0  0  2  0  0  0  0  0  0  0  0  0
   21.2904   74.6494   -6.1275 O   0  0  0  0  0  0  0  0  0  0  0  0
   19.0722   73.9411   -4.9221 O   0  0  0  0  0  0  0  0  0  0  0  0
   19.9517   72.6693   -7.0378 O   0  0  0  0  0  0  0  0  0  0  0  0
   19.0381   70.7236   -6.0398 O   0  0  0  0  0  0  0  0  0  0  0  0
   17.8090   70.1072   -9.9334 O   0  0  0  0  0  0  0  0  0  0  0  0
   15.8822   70.8574   -7.9402 O   0  0  0  0  0  0  0  0  0  0  0  0
   20.4209   71.2381   -9.4056 O   0  0  0  0  0  0  0  0  0  0  0  0
   18.1240   70.8828   -8.7738 C   0  0  1  0  0  0  0  0  0  0  0  0
   17.2078   70.4342   -7.6336 C   0  0  1  0  0  0  0  0  0  0  0  0
   19.5895   70.6583   -8.4061 C   0  0  2  0  0  0  0  0  0  0  0  0
   17.6613   71.0272   -6.2927 C   0  0  1  0  0  0  0  0  0  0  0  0
   19.9235   71.2444   -7.0332 C   0  0  1  0  0  0  0  0  0  0  0  0
   16.8799   70.2456  -10.1725 H   0  0  0  0  0  0  0  0  0  0  0  0
   15.6082   70.4765   -8.7894 H   0  0  0  0  0  0  0  0  0  0  0  0
   20.1999   70.8586  -10.2699 H   0  0  0  0  0  0  0  0  0  0  0  0
   15.9466   69.5068   -5.6167 O   0  0  0  0  0  0  0  0  0  0  0  0
   16.8586   70.4688   -5.1197 C   0  0  0  0  0  0  0  0  0  0  0  0
   15.4290   69.1425   -4.8811 H   0  0  0  0  0  0  0  0  0  0  0  0
 25 28  1  0
 25 24  1  0
 25 26  1  6
 25 27  2  0
  1  4  1  0
  1 24  1  0
  1  2  1  6
  1  3  2  0
  6 11  1  0
  6 12  1  0
 29 36  1  0
 29 37  1  0
  9  7  1  1
  7 13  1  0
 10  8  1  1
  8 14  1  0
 37 28  1  6
  4  5  1  0
 33 30  1  6
 30 38  1  0
 34 31  1  6
 31 39  1  0
 35 32  1  6
 32 40  1  0
 41 42  1  0
 41 43  1  0
 15 19  2  0
 16 22  2  0
 12 17  1  6
 17 19  1  0
 17 20  1  0
 18 19  1  0
 18 22  1  0
 18 23  1  0
  9 10  1  0
  9 11  1  0
 10 12  1  0
 11  5  1  6
 33 34  1  0
 33 35  1  0
 34 36  1  0
 35 37  1  0
 36 42  1  1
 20 21  2  0
 21 22  1  0
M  CHG  2   2  -1  26  -1
M  END
>  <COMPND>  (45) 
    8629 

>  <AUTHOR>  (45) 
    GENERATED BY OPEN BABEL 3.1.1

>  <MASTER>  (45) 
        0    0    0    0    0    0    0    0   58    0   58    0

>  <minimizedAffinity>  (45) 
-8.46687

>  <CNNscore>  (45) 
0.5323532224

>  <CNNaffinity>  (45) 
4.2298913002

>  <CNN_VS>  (45) 
2.2517962456

>  <CNNaffinity_variance>  (45) 
0.1630513072

$$$$
46
     RDKit          3D

 43 45  0  0  0  0  0  0  0  0999 V2000
   23.3118   70.7311   -2.2864 P   0  0  2  0  0  0  0  0  0  0  0  0
   23.6382   71.5601   -3.6368 O   0  0  0  0  0  0  0  0  0  0  0  0
   24.5010   70.0908   -1.6328 O   0  0  0  0  0  0  0  0  0  0  0  0
   22.1247   69.7235   -2.7265 O   0  0  0  0  0  0  0  0  0  0  0  0
   21.3027   70.0850   -3.8226 C   0  0  0  0  0  0  0  0  0  0  0  0
   19.1779   71.0888   -4.3244 O   0  0  0  0  0  0  0  0  0  0  0  0
   18.0464   69.3155   -2.1876 O   0  0  0  0  0  0  0  0  0  0  0  0
   17.3549   68.0039   -4.4763 O   0  0  0  0  0  0  0  0  0  0  0  0
   19.0870   69.0466   -3.1257 C   0  0  1  0  0  0  0  0  0  0  0  0
   18.5057   68.8235   -4.5063 C   0  0  2  0  0  0  0  0  0  0  0  0
   19.8861   70.3291   -3.3206 C   0  0  1  0  0  0  0  0  0  0  0  0
   18.2008   70.2432   -4.9530 C   0  0  2  0  0  0  0  0  0  0  0  0
   17.5225   68.5108   -2.0467 H   0  0  0  0  0  0  0  0  0  0  0  0
   17.6008   67.1116   -4.1862 H   0  0  0  0  0  0  0  0  0  0  0  0
   16.0355   69.9284   -6.7390 O   0  0  0  0  0  0  0  0  0  0  0  0
   18.6767   70.8726  -10.3960 O   0  0  0  0  0  0  0  0  0  0  0  0
   18.2943   70.4013   -6.3769 N   0  0  0  0  0  0  0  0  0  0  0  0
   17.3523   70.3990   -8.5585 N   0  0  0  0  0  0  0  0  0  0  0  0
   17.1473   70.2202   -7.1844 C   0  0  0  0  0  0  0  0  0  0  0  0
   19.5131   70.7326   -6.9589 C   0  0  0  0  0  0  0  0  0  0  0  0
   19.6922   70.8983   -8.2710 C   0  0  0  0  0  0  0  0  0  0  0  0
   18.5443   70.7272   -9.1848 C   0  0  0  0  0  0  0  0  0  0  0  0
   16.5674   70.2775   -9.1407 H   0  0  0  0  0  0  0  0  0  0  0  0
   22.5441   71.8183   -1.3691 O   0  0  0  0  0  0  0  0  0  0  0  0
   21.7499   71.6558    0.0294 P   0  0  2  0  0  0  0  0  0  0  0  0
   22.9046   71.1822    1.0590 O   0  0  0  0  0  0  0  0  0  0  0  0
   20.5656   70.7356   -0.0388 O   0  0  0  0  0  0  0  0  0  0  0  0
   21.3986   73.1660    0.4775 O   0  0  0  0  0  0  0  0  0  0  0  0
   22.6037   75.2009    0.3249 O   0  0  0  0  0  0  0  0  0  0  0  0
   20.9587   75.6885    4.0808 O   0  0  0  0  0  0  0  0  0  0  0  0
   19.9579   77.2415    1.8820 O   0  0  0  0  0  0  0  0  0  0  0  0
   21.8886   73.0796    3.2393 O   0  0  0  0  0  0  0  0  0  0  0  0
   20.9907   75.2531    2.7189 C   0  0  1  0  0  0  0  0  0  0  0  0
   21.1631   76.4835    1.8260 C   0  0  1  0  0  0  0  0  0  0  0  0
   22.1575   74.2851    2.5316 C   0  0  2  0  0  0  0  0  0  0  0  0
   21.4729   76.0785    0.3785 C   0  0  1  0  0  0  0  0  0  0  0  0
   22.4119   73.9865    1.0530 C   0  0  1  0  0  0  0  0  0  0  0  0
   20.2198   76.3031    4.2066 H   0  0  0  0  0  0  0  0  0  0  0  0
   19.7736   77.4905    2.8014 H   0  0  0  0  0  0  0  0  0  0  0  0
   21.7296   73.2820    4.1740 H   0  0  0  0  0  0  0  0  0  0  0  0
   22.2277   78.3452    0.3440 O   0  0  0  0  0  0  0  0  0  0  0  0
   21.8038   77.2865   -0.4950 C   0  0  0  0  0  0  0  0  0  0  0  0
   22.4420   79.1208   -0.1984 H   0  0  0  0  0  0  0  0  0  0  0  0
 25 28  1  0
 25 24  1  0
 25 26  1  1
 25 27  2  0
  1  4  1  0
  1 24  1  0
  1  2  1  6
  1  3  2  0
  6 11  1  0
  6 12  1  0
 29 36  1  0
 29 37  1  0
  9  7  1  1
  7 13  1  0
 10  8  1  1
  8 14  1  0
 37 28  1  6
  4  5  1  0
 33 30  1  1
 30 38  1  0
 34 31  1  6
 31 39  1  0
 35 32  1  1
 32 40  1  0
 41 42  1  0
 41 43  1  0
 15 19  2  0
 16 22  2  0
 12 17  1  6
 17 19  1  0
 17 20  1  0
 18 19  1  0
 18 22  1  0
 18 23  1  0
  9 10  1  0
  9 11  1  0
 10 12  1  0
 11  5  1  6
 33 34  1  0
 33 35  1  0
 34 36  1  0
 35 37  1  0
 36 42  1  6
 20 21  2  0
 21 22  1  0
M  CHG  2   2  -1  26  -1
M  END
>  <COMPND>  (46) 
    8629 

>  <AUTHOR>  (46) 
    GENERATED BY OPEN BABEL 3.1.1

>  <MASTER>  (46) 
        0    0    0    0    0    0    0    0   58    0   58    0

>  <minimizedAffinity>  (46) 
-7.94907

>  <CNNscore>  (46) 
0.5207882524

>  <CNNaffinity>  (46) 
4.5588579178

>  <CNN_VS>  (46) 
2.3741996288

>  <CNNaffinity_variance>  (46) 
0.0631290823

$$$$
47
     RDKit          3D

 43 45  0  0  0  0  0  0  0  0999 V2000
   21.0068   70.4762   -1.0957 P   0  0  2  0  0  0  0  0  0  0  0  0
   19.9020   69.3240   -0.8328 O   0  0  0  0  0  0  0  0  0  0  0  0
   22.4322   70.0099   -1.0487 O   0  0  0  0  0  0  0  0  0  0  0  0
   20.6130   71.6396   -0.0425 O   0  0  0  0  0  0  0  0  0  0  0  0
   21.6290   72.1692    0.7911 C   0  0  0  0  0  0  0  0  0  0  0  0
   21.8594   74.0405    2.2807 O   0  0  0  0  0  0  0  0  0  0  0  0
   18.9047   73.8044    2.7335 O   0  0  0  0  0  0  0  0  0  0  0  0
   19.0722   75.8803    0.9731 O   0  0  0  0  0  0  0  0  0  0  0  0
   19.6545   73.5886    1.5391 C   0  0  1  0  0  0  0  0  0  0  0  0
   20.1006   74.9115    0.9522 C   0  0  2  0  0  0  0  0  0  0  0  0
   20.9817   72.9491    1.9273 C   0  0  1  0  0  0  0  0  0  0  0  0
   21.2678   75.2782    1.8529 C   0  0  2  0  0  0  0  0  0  0  0  0
   18.0525   74.2119    2.5109 H   0  0  0  0  0  0  0  0  0  0  0  0
   18.3531   75.6015    0.3849 H   0  0  0  0  0  0  0  0  0  0  0  0
   22.8523   77.2681    3.0808 O   0  0  0  0  0  0  0  0  0  0  0  0
   25.0471   78.2112   -0.8606 O   0  0  0  0  0  0  0  0  0  0  0  0
   22.2614   76.0590    1.1713 N   0  0  0  0  0  0  0  0  0  0  0  0
   23.9440   77.7359    1.1173 N   0  0  0  0  0  0  0  0  0  0  0  0
   23.0019   77.0337    1.8798 C   0  0  0  0  0  0  0  0  0  0  0  0
   22.4934   75.8544   -0.1844 C   0  0  0  0  0  0  0  0  0  0  0  0
   23.3946   76.5333   -0.8973 C   0  0  0  0  0  0  0  0  0  0  0  0
   24.2105   77.5698   -0.2325 C   0  0  0  0  0  0  0  0  0  0  0  0
   24.4715   78.4204    1.5897 H   0  0  0  0  0  0  0  0  0  0  0  0
   20.5498   71.1009   -2.5148 O   0  0  0  0  0  0  0  0  0  0  0  0
   19.3544   72.1224   -2.8893 P   0  0  2  0  0  0  0  0  0  0  0  0
   20.0379   73.5771   -2.7047 O   0  0  0  0  0  0  0  0  0  0  0  0
   18.1000   71.9215   -2.0892 O   0  0  0  0  0  0  0  0  0  0  0  0
   19.1637   71.9611   -4.4839 O   0  0  0  0  0  0  0  0  0  0  0  0
   18.5269   69.7035   -4.8222 O   0  0  0  0  0  0  0  0  0  0  0  0
   18.5443   70.9797   -8.7492 O   0  0  0  0  0  0  0  0  0  0  0  0
   16.0420   70.4741   -7.4337 O   0  0  0  0  0  0  0  0  0  0  0  0
   20.5692   71.9316   -6.9126 O   0  0  0  0  0  0  0  0  0  0  0  0
   18.3465   71.1074   -7.3386 C   0  0  1  0  0  0  0  0  0  0  0  0
   17.3036   70.0752   -6.9052 C   0  0  1  0  0  0  0  0  0  0  0  0
   19.6743   70.8628   -6.6241 C   0  0  2  0  0  0  0  0  0  0  0  0
   17.2326   69.9679   -5.3760 C   0  0  1  0  0  0  0  0  0  0  0  0
   19.4850   70.7230   -5.1126 C   0  0  1  0  0  0  0  0  0  0  0  0
   17.7051   71.1343   -9.2088 H   0  0  0  0  0  0  0  0  0  0  0  0
   16.1006   70.5385   -8.4000 H   0  0  0  0  0  0  0  0  0  0  0  0
   20.6809   72.0096   -7.8725 H   0  0  0  0  0  0  0  0  0  0  0  0
   14.9714   69.2582   -5.0723 O   0  0  0  0  0  0  0  0  0  0  0  0
   16.3141   68.8346   -4.9242 C   0  0  0  0  0  0  0  0  0  0  0  0
   14.3754   68.5468   -4.7888 H   0  0  0  0  0  0  0  0  0  0  0  0
 25 28  1  0
 25 24  1  0
 25 26  1  6
 25 27  2  0
  1  4  1  0
  1 24  1  0
  1  2  1  1
  1  3  2  0
  6 11  1  0
  6 12  1  0
 29 36  1  0
 29 37  1  0
  9  7  1  1
  7 13  1  0
 10  8  1  1
  8 14  1  0
 37 28  1  6
  4  5  1  0
 33 30  1  6
 30 38  1  0
 34 31  1  1
 31 39  1  0
 35 32  1  1
 32 40  1  0
 41 42  1  0
 41 43  1  0
 15 19  2  0
 16 22  2  0
 12 17  1  6
 17 19  1  0
 17 20  1  0
 18 19  1  0
 18 22  1  0
 18 23  1  0
  9 10  1  0
  9 11  1  0
 10 12  1  0
 11  5  1  6
 33 34  1  0
 33 35  1  0
 34 36  1  0
 35 37  1  0
 36 42  1  6
 20 21  2  0
 21 22  1  0
M  CHG  2   2  -1  26  -1
M  END
>  <COMPND>  (47) 
    8629 

>  <AUTHOR>  (47) 
    GENERATED BY OPEN BABEL 3.1.1

>  <MASTER>  (47) 
        0    0    0    0    0    0    0    0   58    0   58    0

>  <minimizedAffinity>  (47) 
-6.86115

>  <CNNscore>  (47) 
0.4725069404

>  <CNNaffinity>  (47) 
4.2000212669

>  <CNN_VS>  (47) 
1.9845391512

>  <CNNaffinity_variance>  (47) 
0.0386884101

$$$$
48
     RDKit          3D

 43 45  0  0  0  0  0  0  0  0999 V2000
   19.3058   70.4412   -2.0212 P   0  0  2  0  0  0  0  0  0  0  0  0
   19.1900   71.8508   -1.2355 O   0  0  0  0  0  0  0  0  0  0  0  0
   19.5352   69.2446   -1.1456 O   0  0  0  0  0  0  0  0  0  0  0  0
   20.4356   70.7154   -3.1465 O   0  0  0  0  0  0  0  0  0  0  0  0
   20.9254   72.0355   -3.3052 C   0  0  0  0  0  0  0  0  0  0  0  0
   22.8017   73.0182   -2.1705 O   0  0  0  0  0  0  0  0  0  0  0  0
   24.3490   70.5967   -3.0266 O   0  0  0  0  0  0  0  0  0  0  0  0
   23.7613   70.0368   -0.4232 O   0  0  0  0  0  0  0  0  0  0  0  0
   22.9828   70.7003   -2.6289 C   0  0  1  0  0  0  0  0  0  0  0  0
   22.8847   70.8907   -1.1296 C   0  0  2  0  0  0  0  0  0  0  0  0
   22.4404   72.0238   -3.1538 C   0  0  1  0  0  0  0  0  0  0  0  0
   23.2462   72.3581   -0.9740 C   0  0  2  0  0  0  0  0  0  0  0  0
   24.7171   69.7590   -2.7030 H   0  0  0  0  0  0  0  0  0  0  0  0
   23.4897   69.1148   -0.5535 H   0  0  0  0  0  0  0  0  0  0  0  0
   23.6368   75.0343   -0.1596 O   0  0  0  0  0  0  0  0  0  0  0  0
   20.7304   74.5715    3.3872 O   0  0  0  0  0  0  0  0  0  0  0  0
   22.6039   72.9632    0.1585 N   0  0  0  0  0  0  0  0  0  0  0  0
   22.1892   74.8017    1.6057 N   0  0  0  0  0  0  0  0  0  0  0  0
   22.8695   74.3141    0.4825 C   0  0  0  0  0  0  0  0  0  0  0  0
   21.7215   72.2192    0.9342 C   0  0  0  0  0  0  0  0  0  0  0  0
   21.0818   72.6986    2.0029 C   0  0  0  0  0  0  0  0  0  0  0  0
   21.3036   74.1014    2.4094 C   0  0  0  0  0  0  0  0  0  0  0  0
   22.3589   75.7403    1.8507 H   0  0  0  0  0  0  0  0  0  0  0  0
   17.9391   70.3922   -2.8830 O   0  0  0  0  0  0  0  0  0  0  0  0
   17.4729   69.4096   -4.0789 P   0  0  2  0  0  0  0  0  0  0  0  0
   15.9203   69.8065   -4.3013 O   0  0  0  0  0  0  0  0  0  0  0  0
   17.7064   67.9522   -3.8043 O   0  0  0  0  0  0  0  0  0  0  0  0
   18.2293   69.9730   -5.3887 O   0  0  0  0  0  0  0  0  0  0  0  0
   18.8936   72.1604   -6.0136 O   0  0  0  0  0  0  0  0  0  0  0  0
   17.6347   70.7762   -9.6947 O   0  0  0  0  0  0  0  0  0  0  0  0
   20.4419   71.1144   -9.1913 O   0  0  0  0  0  0  0  0  0  0  0  0
   16.1778   70.0462   -7.3022 O   0  0  0  0  0  0  0  0  0  0  0  0
   18.2289   70.6739   -8.3978 C   0  0  1  0  0  0  0  0  0  0  0  0
   19.4220   71.6299   -8.3402 C   0  0  1  0  0  0  0  0  0  0  0  0
   17.1899   71.0465   -7.3419 C   0  0  2  0  0  0  0  0  0  0  0  0
   19.9464   71.7755   -6.9053 C   0  0  1  0  0  0  0  0  0  0  0  0
   17.8241   71.2143   -5.9600 C   0  0  1  0  0  0  0  0  0  0  0  0
   18.2890   70.5405  -10.3698 H   0  0  0  0  0  0  0  0  0  0  0  0
   20.0977   71.0269  -10.0941 H   0  0  0  0  0  0  0  0  0  0  0  0
   15.7840   69.9497   -8.1827 H   0  0  0  0  0  0  0  0  0  0  0  0
   22.2760   72.2539   -7.1357 O   0  0  0  0  0  0  0  0  0  0  0  0
   21.0334   72.8429   -6.7992 C   0  0  0  0  0  0  0  0  0  0  0  0
   22.9773   72.9217   -7.0729 H   0  0  0  0  0  0  0  0  0  0  0  0
 25 28  1  0
 25 24  1  0
 25 26  1  6
 25 27  2  0
  1  4  1  0
  1 24  1  0
  1  2  1  1
  1  3  2  0
  6 11  1  0
  6 12  1  0
 29 36  1  0
 29 37  1  0
  9  7  1  1
  7 13  1  0
 10  8  1  1
  8 14  1  0
 37 28  1  6
  4  5  1  0
 33 30  1  6
 30 38  1  0
 34 31  1  6
 31 39  1  0
 35 32  1  1
 32 40  1  0
 41 42  1  0
 41 43  1  0
 15 19  2  0
 16 22  2  0
 12 17  1  1
 17 19  1  0
 17 20  1  0
 18 19  1  0
 18 22  1  0
 18 23  1  0
  9 10  1  0
  9 11  1  0
 10 12  1  0
 11  5  1  1
 33 34  1  0
 33 35  1  0
 34 36  1  0
 35 37  1  0
 36 42  1  6
 20 21  2  0
 21 22  1  0
M  CHG  2   2  -1  26  -1
M  END
>  <COMPND>  (48) 
    8629 

>  <AUTHOR>  (48) 
    GENERATED BY OPEN BABEL 3.1.1

>  <MASTER>  (48) 
        0    0    0    0    0    0    0    0   58    0   58    0

>  <minimizedAffinity>  (48) 
-8.26573

>  <CNNscore>  (48) 
0.4637199938

>  <CNNaffinity>  (48) 
4.2121191025

>  <CNN_VS>  (48) 
1.9532438517

>  <CNNaffinity_variance>  (48) 
0.2717471123

$$$$
49
     RDKit          3D

 43 45  0  0  0  0  0  0  0  0999 V2000
   21.3417   70.9068   -2.9978 P   0  0  2  0  0  0  0  0  0  0  0  0
   22.3835   69.7501   -2.5572 O   0  0  0  0  0  0  0  0  0  0  0  0
   20.9013   71.8184   -1.8902 O   0  0  0  0  0  0  0  0  0  0  0  0
   20.1614   70.0990   -3.7542 O   0  0  0  0  0  0  0  0  0  0  0  0
   19.1025   69.5655   -2.9784 C   0  0  0  0  0  0  0  0  0  0  0  0
   18.0858   71.3093   -4.2819 O   0  0  0  0  0  0  0  0  0  0  0  0
   15.4907   70.4715   -3.0351 O   0  0  0  0  0  0  0  0  0  0  0  0
   15.3704   69.3065   -5.4978 O   0  0  0  0  0  0  0  0  0  0  0  0
   16.6013   69.6690   -3.4327 C   0  0  1  0  0  0  0  0  0  0  0  0
   16.6472   69.5452   -4.9414 C   0  0  2  0  0  0  0  0  0  0  0  0
   17.8749   70.4519   -3.1389 C   0  0  1  0  0  0  0  0  0  0  0  0
   17.2211   70.8910   -5.3506 C   0  0  2  0  0  0  0  0  0  0  0  0
   14.6657   69.9923   -3.2128 H   0  0  0  0  0  0  0  0  0  0  0  0
   15.0484   68.4387   -5.2082 H   0  0  0  0  0  0  0  0  0  0  0  0
   16.0941   70.6990   -7.9334 O   0  0  0  0  0  0  0  0  0  0  0  0
   20.2437   70.6034   -9.9365 O   0  0  0  0  0  0  0  0  0  0  0  0
   17.9836   70.8149   -6.5648 N   0  0  0  0  0  0  0  0  0  0  0  0
   18.1612   70.6518   -8.9287 N   0  0  0  0  0  0  0  0  0  0  0  0
   17.3205   70.7199   -7.8104 C   0  0  0  0  0  0  0  0  0  0  0  0
   19.3732   70.8350   -6.5128 C   0  0  0  0  0  0  0  0  0  0  0  0
   20.1605   70.7679   -7.5884 C   0  0  0  0  0  0  0  0  0  0  0  0
   19.5470   70.6669   -8.9284 C   0  0  0  0  0  0  0  0  0  0  0  0
   17.7214   70.5848   -9.8073 H   0  0  0  0  0  0  0  0  0  0  0  0
   22.1116   71.6463   -4.2116 O   0  0  0  0  0  0  0  0  0  0  0  0
   22.3480   73.2155   -4.5194 P   0  0  2  0  0  0  0  0  0  0  0  0
   23.3214   73.1976   -5.8116 O   0  0  0  0  0  0  0  0  0  0  0  0
   22.8805   73.9978   -3.3539 O   0  0  0  0  0  0  0  0  0  0  0  0
   20.9298   73.7391   -5.0846 O   0  0  0  0  0  0  0  0  0  0  0  0
   20.2753   74.8446   -7.0761 O   0  0  0  0  0  0  0  0  0  0  0  0
   17.9828   76.9546   -4.3662 O   0  0  0  0  0  0  0  0  0  0  0  0
   16.7179   75.0827   -6.1394 O   0  0  0  0  0  0  0  0  0  0  0  0
   20.6707   76.1436   -3.6612 O   0  0  0  0  0  0  0  0  0  0  0  0
   18.6345   75.7991   -4.9007 C   0  0  1  0  0  0  0  0  0  0  0  0
   18.0628   75.5274   -6.2936 C   0  0  1  0  0  0  0  0  0  0  0  0
   20.1368   76.0645   -4.9784 C   0  0  2  0  0  0  0  0  0  0  0  0
   18.8928   74.4720   -7.0368 C   0  0  1  0  0  0  0  0  0  0  0  0
   20.8610   74.9813   -5.7799 C   0  0  1  0  0  0  0  0  0  0  0  0
   17.0286   76.7925   -4.3138 H   0  0  0  0  0  0  0  0  0  0  0  0
   16.2048   75.7580   -5.6683 H   0  0  0  0  0  0  0  0  0  0  0  0
   20.2042   76.8330   -3.1642 H   0  0  0  0  0  0  0  0  0  0  0  0
   17.1828   73.6411   -8.4840 O   0  0  0  0  0  0  0  0  0  0  0  0
   18.4358   74.3000   -8.4837 C   0  0  0  0  0  0  0  0  0  0  0  0
   16.8794   73.5250   -9.3984 H   0  0  0  0  0  0  0  0  0  0  0  0
 25 28  1  0
 25 24  1  0
 25 26  1  6
 25 27  2  0
  1  4  1  0
  1 24  1  0
  1  2  1  1
  1  3  2  0
  6 11  1  0
  6 12  1  0
 29 36  1  0
 29 37  1  0
  9  7  1  6
  7 13  1  0
 10  8  1  6
  8 14  1  0
 37 28  1  1
  4  5  1  0
 33 30  1  6
 30 38  1  0
 34 31  1  1
 31 39  1  0
 35 32  1  1
 32 40  1  0
 41 42  1  0
 41 43  1  0
 15 19  2  0
 16 22  2  0
 12 17  1  6
 17 19  1  0
 17 20  1  0
 18 19  1  0
 18 22  1  0
 18 23  1  0
  9 10  1  0
  9 11  1  0
 10 12  1  0
 11  5  1  6
 33 34  1  0
 33 35  1  0
 34 36  1  0
 35 37  1  0
 36 42  1  6
 20 21  2  0
 21 22  1  0
M  CHG  2   2  -1  26  -1
M  END
>  <COMPND>  (49) 
    8629 

>  <AUTHOR>  (49) 
    GENERATED BY OPEN BABEL 3.1.1

>  <MASTER>  (49) 
        0    0    0    0    0    0    0    0   58    0   58    0

>  <minimizedAffinity>  (49) 
-6.27781

>  <CNNscore>  (49) 
0.4475756884

>  <CNNaffinity>  (49) 
4.1529822350

>  <CNN_VS>  (49) 
1.8587738276

>  <CNNaffinity_variance>  (49) 
0.5161696672

$$$$
50
     RDKit          3D

 43 45  0  0  0  0  0  0  0  0999 V2000
   19.6296   69.5111   -3.0113 P   0  0  2  0  0  0  0  0  0  0  0  0
   19.2776   69.1635   -1.4709 O   0  0  0  0  0  0  0  0  0  0  0  0
   19.2907   68.4326   -3.9978 O   0  0  0  0  0  0  0  0  0  0  0  0
   21.1844   69.9564   -2.9634 O   0  0  0  0  0  0  0  0  0  0  0  0
   21.4989   71.3305   -3.1075 C   0  0  0  0  0  0  0  0  0  0  0  0
   22.9915   72.6529   -1.7669 O   0  0  0  0  0  0  0  0  0  0  0  0
   24.9765   70.4338   -2.1221 O   0  0  0  0  0  0  0  0  0  0  0  0
   24.0082   69.9695    0.3846 O   0  0  0  0  0  0  0  0  0  0  0  0
   23.5595   70.3614   -1.9726 C   0  0  1  0  0  0  0  0  0  0  0  0
   23.1677   70.6356   -0.5357 C   0  0  2  0  0  0  0  0  0  0  0  0
   22.9494   71.5523   -2.7014 C   0  0  1  0  0  0  0  0  0  0  0  0
   23.2965   72.1473   -0.4569 C   0  0  2  0  0  0  0  0  0  0  0  0
   25.3884   69.6831   -1.6652 H   0  0  0  0  0  0  0  0  0  0  0  0
   23.8899   69.0110    0.2956 H   0  0  0  0  0  0  0  0  0  0  0  0
   20.8606   70.9622    0.3433 O   0  0  0  0  0  0  0  0  0  0  0  0
   19.8804   74.4588    3.1813 O   0  0  0  0  0  0  0  0  0  0  0  0
   22.3854   72.7259    0.4900 N   0  0  0  0  0  0  0  0  0  0  0  0
   20.3746   72.7041    1.7559 N   0  0  0  0  0  0  0  0  0  0  0  0
   21.1884   72.0497    0.8224 C   0  0  0  0  0  0  0  0  0  0  0  0
   22.6826   73.9504    1.0785 C   0  0  0  0  0  0  0  0  0  0  0  0
   21.8953   74.5616    1.9660 C   0  0  0  0  0  0  0  0  0  0  0  0
   20.6259   73.9220    2.3677 C   0  0  0  0  0  0  0  0  0  0  0  0
   19.5352   72.2519    2.0024 H   0  0  0  0  0  0  0  0  0  0  0  0
   18.8581   70.9109   -3.2534 O   0  0  0  0  0  0  0  0  0  0  0  0
   17.3775   71.2223   -3.8222 P   0  0  2  0  0  0  0  0  0  0  0  0
   16.8817   72.4615   -2.9079 O   0  0  0  0  0  0  0  0  0  0  0  0
   16.4538   70.0388   -3.8147 O   0  0  0  0  0  0  0  0  0  0  0  0
   17.6274   71.8664   -5.2809 O   0  0  0  0  0  0  0  0  0  0  0  0
   18.8114   70.7758   -7.0202 O   0  0  0  0  0  0  0  0  0  0  0  0
   19.5173   74.6983   -8.1002 O   0  0  0  0  0  0  0  0  0  0  0  0
   17.7018   73.1047   -9.6534 O   0  0  0  0  0  0  0  0  0  0  0  0
   19.5070   73.9500   -5.3039 O   0  0  0  0  0  0  0  0  0  0  0  0
   18.7574   73.6101   -7.5675 C   0  0  1  0  0  0  0  0  0  0  0  0
   18.5798   72.5642   -8.6699 C   0  0  1  0  0  0  0  0  0  0  0  0
   19.5060   73.0143   -6.3767 C   0  0  2  0  0  0  0  0  0  0  0  0
   18.0095   71.2559   -8.1056 C   0  0  1  0  0  0  0  0  0  0  0  0
   18.8865   71.6905   -5.9250 C   0  0  1  0  0  0  0  0  0  0  0  0
   19.0473   75.0814   -8.8564 H   0  0  0  0  0  0  0  0  0  0  0  0
   18.0732   73.9306  -10.0013 H   0  0  0  0  0  0  0  0  0  0  0  0
   19.9019   74.7836   -5.6024 H   0  0  0  0  0  0  0  0  0  0  0  0
   18.5490   70.6422  -10.3509 O   0  0  0  0  0  0  0  0  0  0  0  0
   17.9716   70.1484   -9.1563 C   0  0  0  0  0  0  0  0  0  0  0  0
   18.5320   69.9479  -11.0286 H   0  0  0  0  0  0  0  0  0  0  0  0
 25 28  1  0
 25 24  1  0
 25 26  1  1
 25 27  2  0
  1  4  1  0
  1 24  1  0
  1  2  1  1
  1  3  2  0
  6 11  1  0
  6 12  1  0
 29 36  1  0
 29 37  1  0
  9  7  1  1
  7 13  1  0
 10  8  1  1
  8 14  1  0
 37 28  1  6
  4  5  1  0
 33 30  1  6
 30 38  1  0
 34 31  1  6
 31 39  1  0
 35 32  1  1
 32 40  1  0
 41 42  1  0
 41 43  1  0
 15 19  2  0
 16 22  2  0
 12 17  1  1
 17 19  1  0
 17 20  1  0
 18 19  1  0
 18 22  1  0
 18 23  1  0
  9 10  1  0
  9 11  1  0
 10 12  1  0
 11  5  1  1
 33 34  1  0
 33 35  1  0
 34 36  1  0
 35 37  1  0
 36 42  1  6
 20 21  2  0
 21 22  1  0
M  CHG  2   2  -1  26  -1
M  END
>  <COMPND>  (50) 
    8629 

>  <AUTHOR>  (50) 
    GENERATED BY OPEN BABEL 3.1.1

>  <MASTER>  (50) 
        0    0    0    0    0    0    0    0   58    0   58    0

>  <minimizedAffinity>  (50) 
-8.23207

>  <CNNscore>  (50) 
0.4173431098

>  <CNNaffinity>  (50) 
4.1715040207

>  <CNN_VS>  (50) 
1.7409484386

>  <CNNaffinity_variance>  (50) 
0.2878146768

$$$$
51
     RDKit          3D

 43 45  0  0  0  0  0  0  0  0999 V2000
   19.4690   70.0384   -2.2525 P   0  0  2  0  0  0  0  0  0  0  0  0
   19.9421   69.3684   -0.8579 O   0  0  0  0  0  0  0  0  0  0  0  0
   20.5769   70.3406   -3.2183 O   0  0  0  0  0  0  0  0  0  0  0  0
   18.5742   71.3050   -1.7911 O   0  0  0  0  0  0  0  0  0  0  0  0
   18.8289   72.5655   -2.3861 C   0  0  0  0  0  0  0  0  0  0  0  0
   19.9968   72.9256   -0.3173 O   0  0  0  0  0  0  0  0  0  0  0  0
   19.7206   75.8563   -0.8882 O   0  0  0  0  0  0  0  0  0  0  0  0
   22.2965   75.3474   -1.6247 O   0  0  0  0  0  0  0  0  0  0  0  0
   19.9391   74.7771   -1.7953 C   0  0  1  0  0  0  0  0  0  0  0  0
   21.3676   74.2846   -1.6923 C   0  0  2  0  0  0  0  0  0  0  0  0
   19.1510   73.5742   -1.2921 C   0  0  1  0  0  0  0  0  0  0  0  0
   21.3261   73.4624   -0.4155 C   0  0  2  0  0  0  0  0  0  0  0  0
   20.2138   76.6362   -1.1889 H   0  0  0  0  0  0  0  0  0  0  0  0
   22.2856   75.8401   -2.4601 H   0  0  0  0  0  0  0  0  0  0  0  0
   22.1100   71.9958    1.8676 O   0  0  0  0  0  0  0  0  0  0  0  0
   24.9437   69.3236   -0.5963 O   0  0  0  0  0  0  0  0  0  0  0  0
   22.2668   72.3779   -0.4316 N   0  0  0  0  0  0  0  0  0  0  0  0
   23.5202   70.6663    0.6389 N   0  0  0  0  0  0  0  0  0  0  0  0
   22.5927   71.7077    0.7705 C   0  0  0  0  0  0  0  0  0  0  0  0
   22.8553   71.9888   -1.6300 C   0  0  0  0  0  0  0  0  0  0  0  0
   23.7389   70.9944   -1.7384 C   0  0  0  0  0  0  0  0  0  0  0  0
   24.1336   70.2429   -0.5295 C   0  0  0  0  0  0  0  0  0  0  0  0
   23.7627   70.1853    1.4633 H   0  0  0  0  0  0  0  0  0  0  0  0
   18.3643   68.9937   -2.8013 O   0  0  0  0  0  0  0  0  0  0  0  0
   17.3616   69.0762   -4.0665 P   0  0  2  0  0  0  0  0  0  0  0  0
   16.2890   70.2009   -3.6172 O   0  0  0  0  0  0  0  0  0  0  0  0
   16.7527   67.7603   -4.4559 O   0  0  0  0  0  0  0  0  0  0  0  0
   18.2293   69.7821   -5.2301 O   0  0  0  0  0  0  0  0  0  0  0  0
   18.9911   71.9897   -5.6339 O   0  0  0  0  0  0  0  0  0  0  0  0
   17.6969   71.0323   -9.4364 O   0  0  0  0  0  0  0  0  0  0  0  0
   20.5128   71.1967   -8.8964 O   0  0  0  0  0  0  0  0  0  0  0  0
   16.1949   70.1333   -7.1309 O   0  0  0  0  0  0  0  0  0  0  0  0
   18.2780   70.7765   -8.1549 C   0  0  1  0  0  0  0  0  0  0  0  0
   19.5108   71.6694   -8.0005 C   0  0  1  0  0  0  0  0  0  0  0  0
   17.2493   71.0877   -7.0693 C   0  0  2  0  0  0  0  0  0  0  0  0
   20.0319   71.6494   -6.5572 C   0  0  1  0  0  0  0  0  0  0  0  0
   17.8815   71.0903   -5.6763 C   0  0  1  0  0  0  0  0  0  0  0  0
   18.3447   70.8362  -10.1303 H   0  0  0  0  0  0  0  0  0  0  0  0
   20.1708   71.2139   -9.8042 H   0  0  0  0  0  0  0  0  0  0  0  0
   15.8028   70.1416   -8.0175 H   0  0  0  0  0  0  0  0  0  0  0  0
   22.2659   72.2634   -7.1417 O   0  0  0  0  0  0  0  0  0  0  0  0
   21.1632   72.6528   -6.3437 C   0  0  0  0  0  0  0  0  0  0  0  0
   22.9934   72.8931   -7.0162 H   0  0  0  0  0  0  0  0  0  0  0  0
 25 28  1  0
 25 24  1  0
 25 26  1  1
 25 27  2  0
  1  4  1  0
  1 24  1  0
  1  2  1  1
  1  3  2  0
  6 11  1  0
  6 12  1  0
 29 36  1  0
 29 37  1  0
  9  7  1  1
  7 13  1  0
 10  8  1  1
  8 14  1  0
 37 28  1  6
  4  5  1  0
 33 30  1  6
 30 38  1  0
 34 31  1  6
 31 39  1  0
 35 32  1  1
 32 40  1  0
 41 42  1  0
 41 43  1  0
 15 19  2  0
 16 22  2  0
 12 17  1  6
 17 19  1  0
 17 20  1  0
 18 19  1  0
 18 22  1  0
 18 23  1  0
  9 10  1  0
  9 11  1  0
 10 12  1  0
 11  5  1  6
 33 34  1  0
 33 35  1  0
 34 36  1  0
 35 37  1  0
 36 42  1  6
 20 21  2  0
 21 22  1  0
M  CHG  2   2  -1  26  -1
M  END
>  <COMPND>  (51) 
    8629 

>  <AUTHOR>  (51) 
    GENERATED BY OPEN BABEL 3.1.1

>  <MASTER>  (51) 
        0    0    0    0    0    0    0    0   58    0   58    0

>  <minimizedAffinity>  (51) 
-8.21242

>  <CNNscore>  (51) 
0.4167880118

>  <CNNaffinity>  (51) 
4.2600030899

>  <CNN_VS>  (51) 
1.7755181789

>  <CNNaffinity_variance>  (51) 
0.3537217677

$$$$
52
     RDKit          3D

 43 45  0  0  0  0  0  0  0  0999 V2000
   20.1298   70.9236   -0.7375 P   0  0  2  0  0  0  0  0  0  0  0  0
   20.0467   69.3080   -0.7514 O   0  0  0  0  0  0  0  0  0  0  0  0
   20.4716   71.5292    0.5922 O   0  0  0  0  0  0  0  0  0  0  0  0
   18.7206   71.3906   -1.3808 O   0  0  0  0  0  0  0  0  0  0  0  0
   18.5779   71.3608   -2.7903 C   0  0  0  0  0  0  0  0  0  0  0  0
   16.9063   71.1654   -4.5053 O   0  0  0  0  0  0  0  0  0  0  0  0
   15.7704   68.9157   -2.8806 O   0  0  0  0  0  0  0  0  0  0  0  0
   17.1486   67.6021   -4.8329 O   0  0  0  0  0  0  0  0  0  0  0  0
   17.1337   69.2863   -3.0795 C   0  0  1  0  0  0  0  0  0  0  0  0
   17.5872   68.8956   -4.4706 C   0  0  2  0  0  0  0  0  0  0  0  0
   17.2028   70.8072   -3.1378 C   0  0  1  0  0  0  0  0  0  0  0  0
   16.9611   69.9856   -5.3239 C   0  0  2  0  0  0  0  0  0  0  0  0
   15.7011   67.9485   -2.8397 H   0  0  0  0  0  0  0  0  0  0  0  0
   17.5748   66.9442   -4.2617 H   0  0  0  0  0  0  0  0  0  0  0  0
   15.8520   70.6066   -7.8462 O   0  0  0  0  0  0  0  0  0  0  0  0
   20.0156   71.0585   -9.7700 O   0  0  0  0  0  0  0  0  0  0  0  0
   17.7321   70.2703   -6.5011 N   0  0  0  0  0  0  0  0  0  0  0  0
   17.9261   70.8313   -8.8020 N   0  0  0  0  0  0  0  0  0  0  0  0
   17.0776   70.5695   -7.7187 C   0  0  0  0  0  0  0  0  0  0  0  0
   19.1213   70.2514   -6.4410 C   0  0  0  0  0  0  0  0  0  0  0  0
   19.9161   70.5020   -7.4835 C   0  0  0  0  0  0  0  0  0  0  0  0
   19.3119   70.8234   -8.7926 C   0  0  0  0  0  0  0  0  0  0  0  0
   17.4924   71.0418   -9.6607 H   0  0  0  0  0  0  0  0  0  0  0  0
   21.1903   71.2432   -1.9148 O   0  0  0  0  0  0  0  0  0  0  0  0
   22.2811   72.4262   -2.0686 P   0  0  2  0  0  0  0  0  0  0  0  0
   23.5887   71.6549   -2.6279 O   0  0  0  0  0  0  0  0  0  0  0  0
   22.5166   73.2133   -0.8121 O   0  0  0  0  0  0  0  0  0  0  0  0
   21.7591   73.3030   -3.3191 O   0  0  0  0  0  0  0  0  0  0  0  0
   20.2350   72.8415   -5.0744 O   0  0  0  0  0  0  0  0  0  0  0  0
   23.1051   74.8973   -7.2162 O   0  0  0  0  0  0  0  0  0  0  0  0
   20.5821   76.1514   -6.6597 O   0  0  0  0  0  0  0  0  0  0  0  0
   23.9025   73.0721   -5.1156 O   0  0  0  0  0  0  0  0  0  0  0  0
   22.3004   74.5943   -6.0734 C   0  0  1  0  0  0  0  0  0  0  0  0
   20.8306   74.7621   -6.4637 C   0  0  1  0  0  0  0  0  0  0  0  0
   22.5792   73.1584   -5.6331 C   0  0  2  0  0  0  0  0  0  0  0  0
   19.9017   74.2010   -5.3786 C   0  0  1  0  0  0  0  0  0  0  0  0
   21.5690   72.6819   -4.5877 C   0  0  1  0  0  0  0  0  0  0  0  0
   22.9332   75.8078   -7.5005 H   0  0  0  0  0  0  0  0  0  0  0  0
   21.1754   76.4934   -7.3469 H   0  0  0  0  0  0  0  0  0  0  0  0
   24.5325   73.3761   -5.7869 H   0  0  0  0  0  0  0  0  0  0  0  0
   17.6237   74.1629   -4.6588 O   0  0  0  0  0  0  0  0  0  0  0  0
   18.4384   74.2144   -5.8154 C   0  0  0  0  0  0  0  0  0  0  0  0
   16.6895   74.1711   -4.9214 H   0  0  0  0  0  0  0  0  0  0  0  0
 25 28  1  0
 25 24  1  0
 25 26  1  6
 25 27  2  0
  1  4  1  0
  1 24  1  0
  1  2  1  1
  1  3  2  0
  6 11  1  0
  6 12  1  0
 29 36  1  0
 29 37  1  0
  9  7  1  6
  7 13  1  0
 10  8  1  6
  8 14  1  0
 37 28  1  1
  4  5  1  0
 33 30  1  6
 30 38  1  0
 34 31  1  1
 31 39  1  0
 35 32  1  1
 32 40  1  0
 41 42  1  0
 41 43  1  0
 15 19  2  0
 16 22  2  0
 12 17  1  6
 17 19  1  0
 17 20  1  0
 18 19  1  0
 18 22  1  0
 18 23  1  0
  9 10  1  0
  9 11  1  0
 10 12  1  0
 11  5  1  6
 33 34  1  0
 33 35  1  0
 34 36  1  0
 35 37  1  0
 36 42  1  6
 20 21  2  0
 21 22  1  0
M  CHG  2   2  -1  26  -1
M  END
>  <COMPND>  (52) 
    8629 

>  <AUTHOR>  (52) 
    GENERATED BY OPEN BABEL 3.1.1

>  <MASTER>  (52) 
        0    0    0    0    0    0    0    0   58    0   58    0

>  <minimizedAffinity>  (52) 
-7.28298

>  <CNNscore>  (52) 
0.3776245415

>  <CNNaffinity>  (52) 
4.0722961426

>  <CNN_VS>  (52) 
1.5377990007

>  <CNNaffinity_variance>  (52) 
0.6559063792

$$$$
53
     RDKit          3D

 43 45  0  0  0  0  0  0  0  0999 V2000
   19.9233   72.6444   -3.1113 P   0  0  2  0  0  0  0  0  0  0  0  0
   18.7344   73.4775   -3.8252 O   0  0  0  0  0  0  0  0  0  0  0  0
   19.5219   71.3029   -2.5721 O   0  0  0  0  0  0  0  0  0  0  0  0
   20.5304   73.6833   -2.0297 O   0  0  0  0  0  0  0  0  0  0  0  0
   20.4051   73.3755   -0.6522 C   0  0  0  0  0  0  0  0  0  0  0  0
   22.4288   74.1384    0.3949 O   0  0  0  0  0  0  0  0  0  0  0  0
   22.9064   71.2716    1.1326 O   0  0  0  0  0  0  0  0  0  0  0  0
   21.9480   72.3313    3.4553 O   0  0  0  0  0  0  0  0  0  0  0  0
   21.6773   71.9926    1.0630 C   0  0  1  0  0  0  0  0  0  0  0  0
   21.5540   72.9366    2.2408 C   0  0  2  0  0  0  0  0  0  0  0  0
   21.7661   72.9591   -0.1114 C   0  0  1  0  0  0  0  0  0  0  0  0
   22.4727   74.0748    1.8298 C   0  0  2  0  0  0  0  0  0  0  0  0
   22.8734   70.6476    1.8752 H   0  0  0  0  0  0  0  0  0  0  0  0
   21.3329   71.6139    3.6737 H   0  0  0  0  0  0  0  0  0  0  0  0
   24.1553   76.3250    2.1178 O   0  0  0  0  0  0  0  0  0  0  0  0
   20.7517   78.8710    3.8995 O   0  0  0  0  0  0  0  0  0  0  0  0
   22.0523   75.3387    2.3657 N   0  0  0  0  0  0  0  0  0  0  0  0
   22.4592   77.5909    3.0045 N   0  0  0  0  0  0  0  0  0  0  0  0
   22.9762   76.4046    2.4685 C   0  0  0  0  0  0  0  0  0  0  0  0
   20.7369   75.5117    2.7823 C   0  0  0  0  0  0  0  0  0  0  0  0
   20.2599   76.6490    3.2925 C   0  0  0  0  0  0  0  0  0  0  0  0
   21.1601   77.8116    3.4340 C   0  0  0  0  0  0  0  0  0  0  0  0
   23.0847   78.3471    3.0860 H   0  0  0  0  0  0  0  0  0  0  0  0
   21.0685   72.5961   -4.2511 O   0  0  0  0  0  0  0  0  0  0  0  0
   21.1083   73.2174   -5.7429 P   0  0  2  0  0  0  0  0  0  0  0  0
   22.4670   72.5988   -6.3663 O   0  0  0  0  0  0  0  0  0  0  0  0
   21.0328   74.7161   -5.7874 O   0  0  0  0  0  0  0  0  0  0  0  0
   19.9182   72.4640   -6.5311 O   0  0  0  0  0  0  0  0  0  0  0  0
   19.3272   70.2702   -5.8571 O   0  0  0  0  0  0  0  0  0  0  0  0
   17.6837   70.2620   -9.6452 O   0  0  0  0  0  0  0  0  0  0  0  0
   15.9596   70.3872   -7.3518 O   0  0  0  0  0  0  0  0  0  0  0  0
   20.2211   71.5734   -9.1750 O   0  0  0  0  0  0  0  0  0  0  0  0
   18.0662   70.8354   -8.3921 C   0  0  1  0  0  0  0  0  0  0  0  0
   17.3475   70.0736   -7.2768 C   0  0  1  0  0  0  0  0  0  0  0  0
   19.5809   70.7204   -8.2321 C   0  0  2  0  0  0  0  0  0  0  0  0
   17.9069   70.4511   -5.8985 C   0  0  1  0  0  0  0  0  0  0  0  0
   20.0271   71.0709   -6.8115 C   0  0  1  0  0  0  0  0  0  0  0  0
   16.7230   70.3322   -9.7532 H   0  0  0  0  0  0  0  0  0  0  0  0
   15.6188   70.1445   -8.2271 H   0  0  0  0  0  0  0  0  0  0  0  0
   19.9306   71.3412  -10.0703 H   0  0  0  0  0  0  0  0  0  0  0  0
   15.9611   69.9607   -4.6014 O   0  0  0  0  0  0  0  0  0  0  0  0
   17.3148   69.5894   -4.7854 C   0  0  0  0  0  0  0  0  0  0  0  0
   15.5712   69.4202   -3.8961 H   0  0  0  0  0  0  0  0  0  0  0  0
 25 28  1  0
 25 24  1  0
 25 26  1  6
 25 27  2  0
  1  4  1  0
  1 24  1  0
  1  2  1  6
  1  3  2  0
  6 11  1  0
  6 12  1  0
 29 36  1  0
 29 37  1  0
  9  7  1  1
  7 13  1  0
 10  8  1  1
  8 14  1  0
 37 28  1  1
  4  5  1  0
 33 30  1  6
 30 38  1  0
 34 31  1  1
 31 39  1  0
 35 32  1  6
 32 40  1  0
 41 42  1  0
 41 43  1  0
 15 19  2  0
 16 22  2  0
 12 17  1  1
 17 19  1  0
 17 20  1  0
 18 19  1  0
 18 22  1  0
 18 23  1  0
  9 10  1  0
  9 11  1  0
 10 12  1  0
 11  5  1  1
 33 34  1  0
 33 35  1  0
 34 36  1  0
 35 37  1  0
 36 42  1  1
 20 21  2  0
 21 22  1  0
M  CHG  2   2  -1  26  -1
M  END
>  <COMPND>  (53) 
    8629 

>  <AUTHOR>  (53) 
    GENERATED BY OPEN BABEL 3.1.1

>  <MASTER>  (53) 
        0    0    0    0    0    0    0    0   58    0   58    0

>  <minimizedAffinity>  (53) 
-7.65162

>  <CNNscore>  (53) 
0.3662428856

>  <CNNaffinity>  (53) 
4.0075402260

>  <CNN_VS>  (53) 
1.4677331448

>  <CNNaffinity_variance>  (53) 
0.0389055796

$$$$
54
     RDKit          3D

 43 45  0  0  0  0  0  0  0  0999 V2000
   20.5457   75.0406   -3.1333 P   0  0  2  0  0  0  0  0  0  0  0  0
   22.0419   74.5706   -2.7357 O   0  0  0  0  0  0  0  0  0  0  0  0
   20.3657   76.5227   -3.2830 O   0  0  0  0  0  0  0  0  0  0  0  0
   19.6072   74.3273   -2.0250 O   0  0  0  0  0  0  0  0  0  0  0  0
   19.3626   75.0083   -0.8067 C   0  0  0  0  0  0  0  0  0  0  0  0
   19.1374   72.6866   -0.2300 O   0  0  0  0  0  0  0  0  0  0  0  0
   18.5016   73.6303    2.5442 O   0  0  0  0  0  0  0  0  0  0  0  0
   21.1117   72.8699    2.7585 O   0  0  0  0  0  0  0  0  0  0  0  0
   19.4193   74.1714    1.5953 C   0  0  1  0  0  0  0  0  0  0  0  0
   20.6484   73.2926    1.4923 C   0  0  2  0  0  0  0  0  0  0  0  0
   18.8041   74.0216    0.2094 C   0  0  1  0  0  0  0  0  0  0  0  0
   20.1419   72.1409    0.6407 C   0  0  2  0  0  0  0  0  0  0  0  0
   18.8725   73.7150    3.4370 H   0  0  0  0  0  0  0  0  0  0  0  0
   21.4231   73.6382    3.2621 H   0  0  0  0  0  0  0  0  0  0  0  0
   19.9355   69.6373   -0.6505 O   0  0  0  0  0  0  0  0  0  0  0  0
   24.1891   69.9787   -2.3915 O   0  0  0  0  0  0  0  0  0  0  0  0
   21.1801   71.5515   -0.1568 N   0  0  0  0  0  0  0  0  0  0  0  0
   22.0536   69.8094   -1.5165 N   0  0  0  0  0  0  0  0  0  0  0  0
   20.9759   70.2892   -0.7611 C   0  0  0  0  0  0  0  0  0  0  0  0
   22.3845   72.2240   -0.3335 C   0  0  0  0  0  0  0  0  0  0  0  0
   23.4028   71.7522   -1.0558 C   0  0  0  0  0  0  0  0  0  0  0  0
   23.2708   70.4397   -1.7206 C   0  0  0  0  0  0  0  0  0  0  0  0
   21.9342   68.9316   -1.9465 H   0  0  0  0  0  0  0  0  0  0  0  0
   20.2402   74.1872   -4.4717 O   0  0  0  0  0  0  0  0  0  0  0  0
   20.8345   72.7759   -4.9895 P   0  0  2  0  0  0  0  0  0  0  0  0
   20.6150   71.7936   -3.7229 O   0  0  0  0  0  0  0  0  0  0  0  0
   22.2519   72.8477   -5.4792 O   0  0  0  0  0  0  0  0  0  0  0  0
   19.7715   72.2646   -6.0911 O   0  0  0  0  0  0  0  0  0  0  0  0
   18.7390   70.1454   -5.8462 O   0  0  0  0  0  0  0  0  0  0  0  0
   18.2004   70.6767   -9.9056 O   0  0  0  0  0  0  0  0  0  0  0  0
   15.9494   70.8974   -8.1357 O   0  0  0  0  0  0  0  0  0  0  0  0
   20.6628   71.5378   -8.6508 O   0  0  0  0  0  0  0  0  0  0  0  0
   18.2992   71.0882   -8.5395 C   0  0  1  0  0  0  0  0  0  0  0  0
   17.2115   70.3665   -7.7414 C   0  0  1  0  0  0  0  0  0  0  0  0
   19.6851   70.7269   -8.0083 C   0  0  2  0  0  0  0  0  0  0  0  0
   17.4195   70.5481   -6.2318 C   0  0  1  0  0  0  0  0  0  0  0  0
   19.7700   70.8964   -6.4903 C   0  0  1  0  0  0  0  0  0  0  0  0
   17.3229   70.9037  -10.2491 H   0  0  0  0  0  0  0  0  0  0  0  0
   15.8308   70.7768   -9.0910 H   0  0  0  0  0  0  0  0  0  0  0  0
   20.5989   71.4213   -9.6111 H   0  0  0  0  0  0  0  0  0  0  0  0
   17.1341   69.1559   -4.3110 O   0  0  0  0  0  0  0  0  0  0  0  0
   16.4402   69.7084   -5.4144 C   0  0  0  0  0  0  0  0  0  0  0  0
   16.5232   68.6192   -3.7815 H   0  0  0  0  0  0  0  0  0  0  0  0
 25 28  1  0
 25 24  1  0
 25 26  1  1
 25 27  2  0
  1  4  1  0
  1 24  1  0
  1  2  1  1
  1  3  2  0
  6 11  1  0
  6 12  1  0
 29 36  1  0
 29 37  1  0
  9  7  1  1
  7 13  1  0
 10  8  1  1
  8 14  1  0
 37 28  1  6
  4  5  1  0
 33 30  1  6
 30 38  1  0
 34 31  1  6
 31 39  1  0
 35 32  1  6
 32 40  1  0
 41 42  1  0
 41 43  1  0
 15 19  2  0
 16 22  2  0
 12 17  1  6
 17 19  1  0
 17 20  1  0
 18 19  1  0
 18 22  1  0
 18 23  1  0
  9 10  1  0
  9 11  1  0
 10 12  1  0
 11  5  1  6
 33 34  1  0
 33 35  1  0
 34 36  1  0
 35 37  1  0
 36 42  1  1
 20 21  2  0
 21 22  1  0
M  CHG  2   2  -1  26  -1
M  END
>  <COMPND>  (54) 
    8629 

>  <AUTHOR>  (54) 
    GENERATED BY OPEN BABEL 3.1.1

>  <MASTER>  (54) 
        0    0    0    0    0    0    0    0   58    0   58    0

>  <minimizedAffinity>  (54) 
-7.86310

>  <CNNscore>  (54) 
0.3645527959

>  <CNNaffinity>  (54) 
3.9552884102

>  <CNN_VS>  (54) 
1.4419114590

>  <CNNaffinity_variance>  (54) 
0.7513054609

$$$$
55
     RDKit          3D

 43 45  0  0  0  0  0  0  0  0999 V2000
   20.2152   75.0708   -3.0698 P   0  0  2  0  0  0  0  0  0  0  0  0
   21.8256   75.0516   -3.2236 O   0  0  0  0  0  0  0  0  0  0  0  0
   19.5793   76.4202   -3.2309 O   0  0  0  0  0  0  0  0  0  0  0  0
   19.9514   74.3343   -1.6535 O   0  0  0  0  0  0  0  0  0  0  0  0
   19.2255   75.0296   -0.6548 C   0  0  0  0  0  0  0  0  0  0  0  0
   19.0804   72.7042   -0.0671 O   0  0  0  0  0  0  0  0  0  0  0  0
   18.4972   73.6381    2.7219 O   0  0  0  0  0  0  0  0  0  0  0  0
   21.1321   72.9500    2.8642 O   0  0  0  0  0  0  0  0  0  0  0  0
   19.3727   74.2014    1.7464 C   0  0  1  0  0  0  0  0  0  0  0  0
   20.6220   73.3563    1.6106 C   0  0  2  0  0  0  0  0  0  0  0  0
   18.7231   74.0309    0.3788 C   0  0  1  0  0  0  0  0  0  0  0  0
   20.1235   72.1887    0.7761 C   0  0  2  0  0  0  0  0  0  0  0  0
   18.8906   73.7355    3.6038 H   0  0  0  0  0  0  0  0  0  0  0  0
   21.4364   73.7279    3.3572 H   0  0  0  0  0  0  0  0  0  0  0  0
   19.9266   69.7025   -0.5498 O   0  0  0  0  0  0  0  0  0  0  0  0
   24.1428   70.1280   -2.3621 O   0  0  0  0  0  0  0  0  0  0  0  0
   21.1547   71.6257   -0.0492 N   0  0  0  0  0  0  0  0  0  0  0  0
   22.0260   69.9165   -1.4513 N   0  0  0  0  0  0  0  0  0  0  0  0
   20.9561   70.3700   -0.6692 C   0  0  0  0  0  0  0  0  0  0  0  0
   22.3466   72.3169   -0.2372 C   0  0  0  0  0  0  0  0  0  0  0  0
   23.3576   71.8701   -0.9850 C   0  0  0  0  0  0  0  0  0  0  0  0
   23.2309   70.5662   -1.6676 C   0  0  0  0  0  0  0  0  0  0  0  0
   21.9104   69.0438   -1.8926 H   0  0  0  0  0  0  0  0  0  0  0  0
   19.7339   73.9672   -4.1484 O   0  0  0  0  0  0  0  0  0  0  0  0
   18.3275   73.1878   -4.3142 P   0  0  2  0  0  0  0  0  0  0  0  0
   17.2335   74.3777   -4.2445 O   0  0  0  0  0  0  0  0  0  0  0  0
   18.1115   72.0886   -3.3147 O   0  0  0  0  0  0  0  0  0  0  0  0
   18.3071   72.7050   -5.8542 O   0  0  0  0  0  0  0  0  0  0  0  0
   20.1109   72.3536   -7.3506 O   0  0  0  0  0  0  0  0  0  0  0  0
   17.3201   73.8243  -10.0151 O   0  0  0  0  0  0  0  0  0  0  0  0
   18.0005   71.0346  -10.0701 O   0  0  0  0  0  0  0  0  0  0  0  0
   17.4981   74.9379   -7.3491 O   0  0  0  0  0  0  0  0  0  0  0  0
   17.7711   73.0922   -8.8723 C   0  0  1  0  0  0  0  0  0  0  0  0
   18.7446   72.0121   -9.3481 C   0  0  1  0  0  0  0  0  0  0  0  0
   18.4630   74.0518   -7.9059 C   0  0  2  0  0  0  0  0  0  0  0  0
   19.4729   71.3621   -8.1640 C   0  0  1  0  0  0  0  0  0  0  0  0
   19.1977   73.3011   -6.7938 C   0  0  1  0  0  0  0  0  0  0  0  0
   16.8794   73.2209  -10.6325 H   0  0  0  0  0  0  0  0  0  0  0  0
   17.5451   71.4581  -10.8147 H   0  0  0  0  0  0  0  0  0  0  0  0
   17.0402   75.4073   -8.0632 H   0  0  0  0  0  0  0  0  0  0  0  0
   21.8096   71.0587   -8.5598 O   0  0  0  0  0  0  0  0  0  0  0  0
   20.5611   70.3942   -8.6234 C   0  0  0  0  0  0  0  0  0  0  0  0
   22.5118   70.4547   -8.8491 H   0  0  0  0  0  0  0  0  0  0  0  0
 25 28  1  0
 25 24  1  0
 25 26  1  6
 25 27  2  0
  1  4  1  0
  1 24  1  0
  1  2  1  6
  1  3  2  0
  6 11  1  0
  6 12  1  0
 29 36  1  0
 29 37  1  0
  9  7  1  1
  7 13  1  0
 10  8  1  1
  8 14  1  0
 37 28  1  1
  4  5  1  0
 33 30  1  6
 30 38  1  0
 34 31  1  1
 31 39  1  0
 35 32  1  1
 32 40  1  0
 41 42  1  0
 41 43  1  0
 15 19  2  0
 16 22  2  0
 12 17  1  6
 17 19  1  0
 17 20  1  0
 18 19  1  0
 18 22  1  0
 18 23  1  0
  9 10  1  0
  9 11  1  0
 10 12  1  0
 11  5  1  6
 33 34  1  0
 33 35  1  0
 34 36  1  0
 35 37  1  0
 36 42  1  6
 20 21  2  0
 21 22  1  0
M  CHG  2   2  -1  26  -1
M  END
>  <COMPND>  (55) 
    8629 

>  <AUTHOR>  (55) 
    GENERATED BY OPEN BABEL 3.1.1

>  <MASTER>  (55) 
        0    0    0    0    0    0    0    0   58    0   58    0

>  <minimizedAffinity>  (55) 
-7.18204

>  <CNNscore>  (55) 
0.3611935973

>  <CNNaffinity>  (55) 
3.9253821373

>  <CNN_VS>  (55) 
1.4178228378

>  <CNNaffinity_variance>  (55) 
0.4320816994

$$$$
56
     RDKit          3D

 43 45  0  0  0  0  0  0  0  0999 V2000
   21.0826   71.2871   -3.0708 P   0  0  2  0  0  0  0  0  0  0  0  0
   19.5437   71.7730   -3.1854 O   0  0  0  0  0  0  0  0  0  0  0  0
   21.2668   69.8636   -2.6336 O   0  0  0  0  0  0  0  0  0  0  0  0
   21.7742   72.4064   -2.1291 O   0  0  0  0  0  0  0  0  0  0  0  0
   20.9376   73.2643   -1.3728 C   0  0  0  0  0  0  0  0  0  0  0  0
   21.7640   72.9975    0.8677 O   0  0  0  0  0  0  0  0  0  0  0  0
   18.9797   72.1542    1.5942 O   0  0  0  0  0  0  0  0  0  0  0  0
   19.0605   74.7411    2.4533 O   0  0  0  0  0  0  0  0  0  0  0  0
   19.4080   73.1404    0.6565 C   0  0  1  0  0  0  0  0  0  0  0  0
   19.9044   74.3743    1.3809 C   0  0  2  0  0  0  0  0  0  0  0  0
   20.6787   72.6314   -0.0124 C   0  0  1  0  0  0  0  0  0  0  0  0
   21.2822   73.9338    1.8455 C   0  0  2  0  0  0  0  0  0  0  0  0
   18.1692   72.4568    2.0340 H   0  0  0  0  0  0  0  0  0  0  0  0
   18.1966   75.0133    2.1065 H   0  0  0  0  0  0  0  0  0  0  0  0
   21.5326   75.6273    4.0922 O   0  0  0  0  0  0  0  0  0  0  0  0
   24.8580   78.1060    2.0824 O   0  0  0  0  0  0  0  0  0  0  0  0
   22.2057   75.0294    1.9365 N   0  0  0  0  0  0  0  0  0  0  0  0
   23.1883   76.8600    3.0897 N   0  0  0  0  0  0  0  0  0  0  0  0
   22.2512   75.8191    3.1091 C   0  0  0  0  0  0  0  0  0  0  0  0
   23.0537   75.3113    0.8711 C   0  0  0  0  0  0  0  0  0  0  0  0
   23.9409   76.3084    0.8679 C   0  0  0  0  0  0  0  0  0  0  0  0
   24.0522   77.1810    2.0546 C   0  0  0  0  0  0  0  0  0  0  0  0
   23.2376   77.4237    3.8957 H   0  0  0  0  0  0  0  0  0  0  0  0
   21.6802   71.6240   -4.5344 O   0  0  0  0  0  0  0  0  0  0  0  0
   21.3364   72.8138   -5.5732 P   0  0  2  0  0  0  0  0  0  0  0  0
   22.5719   72.7640   -6.6166 O   0  0  0  0  0  0  0  0  0  0  0  0
   21.1248   74.1525   -4.9275 O   0  0  0  0  0  0  0  0  0  0  0  0
   20.0708   72.2692   -6.4139 O   0  0  0  0  0  0  0  0  0  0  0  0
   18.9673   70.2162   -5.9847 O   0  0  0  0  0  0  0  0  0  0  0  0
   18.1603   70.5683  -10.0190 O   0  0  0  0  0  0  0  0  0  0  0  0
   16.0550   70.9836   -8.1103 O   0  0  0  0  0  0  0  0  0  0  0  0
   20.7422   71.3737   -8.9872 O   0  0  0  0  0  0  0  0  0  0  0  0
   18.3755   71.0426   -8.6870 C   0  0  1  0  0  0  0  0  0  0  0  0
   17.3179   70.4141   -7.7775 C   0  0  1  0  0  0  0  0  0  0  0  0
   19.7790   70.6432   -8.2356 C   0  0  2  0  0  0  0  0  0  0  0  0
   17.6422   70.6610   -6.2980 C   0  0  1  0  0  0  0  0  0  0  0  0
   19.9808   70.8844   -6.7385 C   0  0  1  0  0  0  0  0  0  0  0  0
   17.2710   70.8191  -10.3119 H   0  0  0  0  0  0  0  0  0  0  0  0
   15.8624   70.8211   -9.0472 H   0  0  0  0  0  0  0  0  0  0  0  0
   20.6041   71.2124   -9.9332 H   0  0  0  0  0  0  0  0  0  0  0  0
   16.7618   70.4948   -4.0830 O   0  0  0  0  0  0  0  0  0  0  0  0
   16.6889   69.9106   -5.3705 C   0  0  0  0  0  0  0  0  0  0  0  0
   16.1600   70.0275   -3.4820 H   0  0  0  0  0  0  0  0  0  0  0  0
 25 28  1  0
 25 24  1  0
 25 26  1  6
 25 27  2  0
  1  4  1  0
  1 24  1  0
  1  2  1  6
  1  3  2  0
  6 11  1  0
  6 12  1  0
 29 36  1  0
 29 37  1  0
  9  7  1  1
  7 13  1  0
 10  8  1  1
  8 14  1  0
 37 28  1  6
  4  5  1  0
 33 30  1  6
 30 38  1  0
 34 31  1  6
 31 39  1  0
 35 32  1  6
 32 40  1  0
 41 42  1  0
 41 43  1  0
 15 19  2  0
 16 22  2  0
 12 17  1  6
 17 19  1  0
 17 20  1  0
 18 19  1  0
 18 22  1  0
 18 23  1  0
  9 10  1  0
  9 11  1  0
 10 12  1  0
 11  5  1  6
 33 34  1  0
 33 35  1  0
 34 36  1  0
 35 37  1  0
 36 42  1  1
 20 21  2  0
 21 22  1  0
M  CHG  2   2  -1  26  -1
M  END
>  <COMPND>  (56) 
    8629 

>  <AUTHOR>  (56) 
    GENERATED BY OPEN BABEL 3.1.1

>  <MASTER>  (56) 
        0    0    0    0    0    0    0    0   58    0   58    0

>  <minimizedAffinity>  (56) 
-7.14327

>  <CNNscore>  (56) 
0.3569655418

>  <CNNaffinity>  (56) 
4.1641101837

>  <CNN_VS>  (56) 
1.4864438772

>  <CNNaffinity_variance>  (56) 
0.0477187969

$$$$
57
     RDKit          3D

 43 45  0  0  0  0  0  0  0  0999 V2000
   20.7509   70.4894   -1.0337 P   0  0  2  0  0  0  0  0  0  0  0  0
   22.1120   69.7329   -1.4725 O   0  0  0  0  0  0  0  0  0  0  0  0
   20.7768   71.0953    0.3388 O   0  0  0  0  0  0  0  0  0  0  0  0
   19.5936   69.3891   -1.2943 O   0  0  0  0  0  0  0  0  0  0  0  0
   19.1401   69.1862   -2.6213 C   0  0  0  0  0  0  0  0  0  0  0  0
   17.6991   70.7067   -3.7983 O   0  0  0  0  0  0  0  0  0  0  0  0
   15.4191   69.0791   -2.7290 O   0  0  0  0  0  0  0  0  0  0  0  0
   15.6487   68.1701   -5.2898 O   0  0  0  0  0  0  0  0  0  0  0  0
   16.7111   68.6506   -3.1563 C   0  0  1  0  0  0  0  0  0  0  0  0
   16.8054   68.6910   -4.6673 C   0  0  2  0  0  0  0  0  0  0  0  0
   17.7187   69.7173   -2.7461 C   0  0  1  0  0  0  0  0  0  0  0  0
   16.9935   70.1753   -4.9317 C   0  0  2  0  0  0  0  0  0  0  0  0
   14.7587   68.4135   -2.9796 H   0  0  0  0  0  0  0  0  0  0  0  0
   15.5734   67.2236   -5.0920 H   0  0  0  0  0  0  0  0  0  0  0  0
   15.9016   70.3471   -7.5309 O   0  0  0  0  0  0  0  0  0  0  0  0
   20.0330   71.1443   -9.4118 O   0  0  0  0  0  0  0  0  0  0  0  0
   17.7608   70.4272   -6.1187 N   0  0  0  0  0  0  0  0  0  0  0  0
   17.9596   70.7441   -8.4653 N   0  0  0  0  0  0  0  0  0  0  0  0
   17.1158   70.4933   -7.3758 C   0  0  0  0  0  0  0  0  0  0  0  0
   19.1369   70.6061   -6.0294 C   0  0  0  0  0  0  0  0  0  0  0  0
   19.9276   70.8432   -7.0782 C   0  0  0  0  0  0  0  0  0  0  0  0
   19.3328   70.9276   -8.4276 C   0  0  0  0  0  0  0  0  0  0  0  0
   17.5324   70.7940   -9.3512 H   0  0  0  0  0  0  0  0  0  0  0  0
   20.5213   71.5491   -2.2326 O   0  0  0  0  0  0  0  0  0  0  0  0
   20.5052   73.1655   -2.2321 P   0  0  2  0  0  0  0  0  0  0  0  0
   22.0690   73.5521   -2.0812 O   0  0  0  0  0  0  0  0  0  0  0  0
   19.6139   73.7717   -1.1871 O   0  0  0  0  0  0  0  0  0  0  0  0
   20.1296   73.5707   -3.7485 O   0  0  0  0  0  0  0  0  0  0  0  0
   20.1807   75.7315   -4.7207 O   0  0  0  0  0  0  0  0  0  0  0  0
   17.0252   74.1264   -6.8460 O   0  0  0  0  0  0  0  0  0  0  0  0
   19.5498   74.5391   -8.1513 O   0  0  0  0  0  0  0  0  0  0  0  0
   17.3389   73.5041   -4.0364 O   0  0  0  0  0  0  0  0  0  0  0  0
   18.2845   74.1054   -6.1684 C   0  0  1  0  0  0  0  0  0  0  0  0
   19.2255   75.0832   -6.8749 C   0  0  1  0  0  0  0  0  0  0  0  0
   18.0749   74.5177   -4.7126 C   0  0  2  0  0  0  0  0  0  0  0  0
   20.5008   75.3161   -6.0536 C   0  0  1  0  0  0  0  0  0  0  0  0
   19.4048   74.7718   -4.0005 C   0  0  1  0  0  0  0  0  0  0  0  0
   17.1511   73.8651   -7.7708 H   0  0  0  0  0  0  0  0  0  0  0  0
   18.7359   74.3964   -8.6595 H   0  0  0  0  0  0  0  0  0  0  0  0
   16.4992   73.3529   -4.4966 H   0  0  0  0  0  0  0  0  0  0  0  0
   21.8683   75.9468   -7.9087 O   0  0  0  0  0  0  0  0  0  0  0  0
   21.3812   76.4060   -6.6612 C   0  0  0  0  0  0  0  0  0  0  0  0
   22.4301   76.6303   -8.3072 H   0  0  0  0  0  0  0  0  0  0  0  0
 25 28  1  0
 25 24  1  0
 25 26  1  1
 25 27  2  0
  1  4  1  0
  1 24  1  0
  1  2  1  6
  1  3  2  0
  6 11  1  0
  6 12  1  0
 29 36  1  0
 29 37  1  0
  9  7  1  6
  7 13  1  0
 10  8  1  6
  8 14  1  0
 37 28  1  6
  4  5  1  0
 33 30  1  6
 30 38  1  0
 34 31  1  6
 31 39  1  0
 35 32  1  1
 32 40  1  0
 41 42  1  0
 41 43  1  0
 15 19  2  0
 16 22  2  0
 12 17  1  6
 17 19  1  0
 17 20  1  0
 18 19  1  0
 18 22  1  0
 18 23  1  0
  9 10  1  0
  9 11  1  0
 10 12  1  0
 11  5  1  6
 33 34  1  0
 33 35  1  0
 34 36  1  0
 35 37  1  0
 36 42  1  6
 20 21  2  0
 21 22  1  0
M  CHG  2   2  -1  26  -1
M  END
>  <COMPND>  (57) 
    8629 

>  <AUTHOR>  (57) 
    GENERATED BY OPEN BABEL 3.1.1

>  <MASTER>  (57) 
        0    0    0    0    0    0    0    0   58    0   58    0

>  <minimizedAffinity>  (57) 
-6.67579

>  <CNNscore>  (57) 
0.3467226923

>  <CNNaffinity>  (57) 
4.0734992027

>  <CNN_VS>  (57) 
1.4123746157

>  <CNNaffinity_variance>  (57) 
0.4835373461

$$$$
58
     RDKit          3D

 43 45  0  0  0  0  0  0  0  0999 V2000
   20.2512   74.0995   -3.3434 P   0  0  2  0  0  0  0  0  0  0  0  0
   20.6638   72.5355   -3.3773 O   0  0  0  0  0  0  0  0  0  0  0  0
   21.3499   75.0361   -2.9349 O   0  0  0  0  0  0  0  0  0  0  0  0
   18.9221   74.1307   -2.4212 O   0  0  0  0  0  0  0  0  0  0  0  0
   18.9871   74.7799   -1.1633 C   0  0  0  0  0  0  0  0  0  0  0  0
   18.9434   72.5021   -0.3994 O   0  0  0  0  0  0  0  0  0  0  0  0
   18.0984   73.6061    2.2573 O   0  0  0  0  0  0  0  0  0  0  0  0
   20.7531   73.1110    2.6365 O   0  0  0  0  0  0  0  0  0  0  0  0
   19.0070   74.1507    1.3018 C   0  0  1  0  0  0  0  0  0  0  0  0
   20.3131   73.3842    1.3218 C   0  0  2  0  0  0  0  0  0  0  0  0
   18.4724   73.8319   -0.0889 C   0  0  1  0  0  0  0  0  0  0  0  0
   19.9511   72.1249    0.5529 C   0  0  2  0  0  0  0  0  0  0  0  0
   18.4186   73.7974    3.1533 H   0  0  0  0  0  0  0  0  0  0  0  0
   20.9711   73.9434    3.0842 H   0  0  0  0  0  0  0  0  0  0  0  0
   19.9814   69.5651   -0.6407 O   0  0  0  0  0  0  0  0  0  0  0  0
   24.3133   70.1044   -2.1189 O   0  0  0  0  0  0  0  0  0  0  0  0
   21.0736   71.5711   -0.1507 N   0  0  0  0  0  0  0  0  0  0  0  0
   22.1383   69.8358   -1.3759 N   0  0  0  0  0  0  0  0  0  0  0  0
   20.9860   70.2760   -0.7123 C   0  0  0  0  0  0  0  0  0  0  0  0
   22.2446   72.3103   -0.2784 C   0  0  0  0  0  0  0  0  0  0  0  0
   23.3351   71.8755   -0.9133 C   0  0  0  0  0  0  0  0  0  0  0  0
   23.3265   70.5326   -1.5285 C   0  0  0  0  0  0  0  0  0  0  0  0
   22.1006   68.9362   -1.7749 H   0  0  0  0  0  0  0  0  0  0  0  0
   19.6682   74.3538   -4.8295 O   0  0  0  0  0  0  0  0  0  0  0  0
   20.4145   74.4530   -6.2600 P   0  0  2  0  0  0  0  0  0  0  0  0
   21.8978   73.8892   -5.9445 O   0  0  0  0  0  0  0  0  0  0  0  0
   20.3903   75.8232   -6.8730 O   0  0  0  0  0  0  0  0  0  0  0  0
   19.7251   73.3049   -7.1608 O   0  0  0  0  0  0  0  0  0  0  0  0
   18.5089   71.3581   -6.5716 O   0  0  0  0  0  0  0  0  0  0  0  0
   20.6535   69.8552   -9.7642 O   0  0  0  0  0  0  0  0  0  0  0  0
   17.8392   70.3496  -10.0535 O   0  0  0  0  0  0  0  0  0  0  0  0
   21.9045   71.7138   -7.9312 O   0  0  0  0  0  0  0  0  0  0  0  0
   19.9405   70.8522   -9.0273 C   0  0  1  0  0  0  0  0  0  0  0  0
   18.5135   70.3502   -8.7982 C   0  0  1  0  0  0  0  0  0  0  0  0
   20.6478   71.0886   -7.6942 C   0  0  2  0  0  0  0  0  0  0  0  0
   17.7688   71.2381   -7.7921 C   0  0  1  0  0  0  0  0  0  0  0  0
   19.8007   71.9426   -6.7490 C   0  0  1  0  0  0  0  0  0  0  0  0
   20.2098   69.7007  -10.6121 H   0  0  0  0  0  0  0  0  0  0  0  0
   18.3199   69.7857  -10.6798 H   0  0  0  0  0  0  0  0  0  0  0  0
   22.4314   71.1633   -8.5306 H   0  0  0  0  0  0  0  0  0  0  0  0
   15.4705   71.0627   -8.4214 O   0  0  0  0  0  0  0  0  0  0  0  0
   16.3997   70.6671   -7.4293 C   0  0  0  0  0  0  0  0  0  0  0  0
   14.5945   70.7062   -8.2037 H   0  0  0  0  0  0  0  0  0  0  0  0
 25 28  1  0
 25 24  1  0
 25 26  1  1
 25 27  2  0
  1  4  1  0
  1 24  1  0
  1  2  1  6
  1  3  2  0
  6 11  1  0
  6 12  1  0
 29 36  1  0
 29 37  1  0
  9  7  1  1
  7 13  1  0
 10  8  1  1
  8 14  1  0
 37 28  1  6
  4  5  1  0
 33 30  1  6
 30 38  1  0
 34 31  1  6
 31 39  1  0
 35 32  1  6
 32 40  1  0
 41 42  1  0
 41 43  1  0
 15 19  2  0
 16 22  2  0
 12 17  1  6
 17 19  1  0
 17 20  1  0
 18 19  1  0
 18 22  1  0
 18 23  1  0
  9 10  1  0
  9 11  1  0
 10 12  1  0
 11  5  1  6
 33 34  1  0
 33 35  1  0
 34 36  1  0
 35 37  1  0
 36 42  1  1
 20 21  2  0
 21 22  1  0
M  CHG  2   2  -1  26  -1
M  END
>  <COMPND>  (58) 
    8629 

>  <AUTHOR>  (58) 
    GENERATED BY OPEN BABEL 3.1.1

>  <MASTER>  (58) 
        0    0    0    0    0    0    0    0   58    0   58    0

>  <minimizedAffinity>  (58) 
-7.50491

>  <CNNscore>  (58) 
0.3003689349

>  <CNNaffinity>  (58) 
4.0345516205

>  <CNN_VS>  (58) 
1.2118539810

>  <CNNaffinity_variance>  (58) 
0.3377774358

$$$$
59
     RDKit          3D

 43 45  0  0  0  0  0  0  0  0999 V2000
   20.8917   75.6616   -5.6531 P   0  0  2  0  0  0  0  0  0  0  0  0
   19.4782   76.4437   -5.5643 O   0  0  0  0  0  0  0  0  0  0  0  0
   22.0395   76.4829   -6.1624 O   0  0  0  0  0  0  0  0  0  0  0  0
   20.5465   74.3311   -6.5066 O   0  0  0  0  0  0  0  0  0  0  0  0
   19.2171   74.1450   -6.9605 C   0  0  0  0  0  0  0  0  0  0  0  0
   19.5448   71.7995   -7.3667 O   0  0  0  0  0  0  0  0  0  0  0  0
   18.0187   72.2183   -9.9135 O   0  0  0  0  0  0  0  0  0  0  0  0
   16.1418   71.1168   -8.2702 O   0  0  0  0  0  0  0  0  0  0  0  0
   17.8294   72.8280   -8.6377 C   0  0  1  0  0  0  0  0  0  0  0  0
   17.1954   71.8461   -7.6746 C   0  0  2  0  0  0  0  0  0  0  0  0
   19.2020   73.0449   -8.0130 C   0  0  1  0  0  0  0  0  0  0  0  0
   18.3757   70.9666   -7.2987 C   0  0  2  0  0  0  0  0  0  0  0  0
   17.1557   72.0702  -10.3321 H   0  0  0  0  0  0  0  0  0  0  0  0
   15.4151   71.7201   -8.4910 H   0  0  0  0  0  0  0  0  0  0  0  0
   20.3735   71.1802   -5.3134 O   0  0  0  0  0  0  0  0  0  0  0  0
   17.8232   68.8794   -2.2403 O   0  0  0  0  0  0  0  0  0  0  0  0
   18.2601   70.4329   -5.9708 N   0  0  0  0  0  0  0  0  0  0  0  0
   19.1019   70.0345   -3.7847 N   0  0  0  0  0  0  0  0  0  0  0  0
   19.3216   70.5937   -5.0501 C   0  0  0  0  0  0  0  0  0  0  0  0
   17.1037   69.7591   -5.5931 C   0  0  0  0  0  0  0  0  0  0  0  0
   16.9104   69.2306   -4.3829 C   0  0  0  0  0  0  0  0  0  0  0  0
   17.9707   69.3546   -3.3620 C   0  0  0  0  0  0  0  0  0  0  0  0
   19.8280   70.1339   -3.1269 H   0  0  0  0  0  0  0  0  0  0  0  0
   21.0862   75.0909   -4.1533 O   0  0  0  0  0  0  0  0  0  0  0  0
   22.3812   74.4660   -3.4149 P   0  0  2  0  0  0  0  0  0  0  0  0
   23.2480   75.7728   -3.0168 O   0  0  0  0  0  0  0  0  0  0  0  0
   23.1280   73.4537   -4.2343 O   0  0  0  0  0  0  0  0  0  0  0  0
   21.8194   73.9058   -2.0094 O   0  0  0  0  0  0  0  0  0  0  0  0
   22.7472   73.2341    0.0654 O   0  0  0  0  0  0  0  0  0  0  0  0
   20.1874   70.0573   -0.5721 O   0  0  0  0  0  0  0  0  0  0  0  0
   19.5572   72.0036    1.4434 O   0  0  0  0  0  0  0  0  0  0  0  0
   21.6290   71.2192   -2.7973 O   0  0  0  0  0  0  0  0  0  0  0  0
   20.6072   71.4234   -0.6258 C   0  0  1  0  0  0  0  0  0  0  0  0
   20.8286   71.9137    0.8065 C   0  0  1  0  0  0  0  0  0  0  0  0
   21.9012   71.5167   -1.4321 C   0  0  2  0  0  0  0  0  0  0  0  0
   21.5321   73.2775    0.8227 C   0  0  1  0  0  0  0  0  0  0  0  0
   22.5451   72.8988   -1.3089 C   0  0  1  0  0  0  0  0  0  0  0  0
   19.3659   69.9912   -0.0620 H   0  0  0  0  0  0  0  0  0  0  0  0
   19.1233   71.1361    1.4260 H   0  0  0  0  0  0  0  0  0  0  0  0
   21.2219   70.3417   -2.8619 H   0  0  0  0  0  0  0  0  0  0  0  0
   22.0350   72.5555    3.0441 O   0  0  0  0  0  0  0  0  0  0  0  0
   21.9041   73.7123    2.2385 C   0  0  0  0  0  0  0  0  0  0  0  0
   22.2719   72.8170    3.9481 H   0  0  0  0  0  0  0  0  0  0  0  0
 25 28  1  0
 25 24  1  0
 25 26  1  1
 25 27  2  0
  1  4  1  0
  1 24  1  0
  1  2  1  1
  1  3  2  0
  6 11  1  0
  6 12  1  0
 29 36  1  0
 29 37  1  0
  9  7  1  6
  7 13  1  0
 10  8  1  6
  8 14  1  0
 37 28  1  1
  4  5  1  0
 33 30  1  1
 30 38  1  0
 34 31  1  6
 31 39  1  0
 35 32  1  6
 32 40  1  0
 41 42  1  0
 41 43  1  0
 15 19  2  0
 16 22  2  0
 12 17  1  1
 17 19  1  0
 17 20  1  0
 18 19  1  0
 18 22  1  0
 18 23  1  0
  9 10  1  0
  9 11  1  0
 10 12  1  0
 11  5  1  1
 33 34  1  0
 33 35  1  0
 34 36  1  0
 35 37  1  0
 36 42  1  1
 20 21  2  0
 21 22  1  0
M  CHG  2   2  -1  26  -1
M  END
>  <COMPND>  (59) 
    8629 

>  <AUTHOR>  (59) 
    GENERATED BY OPEN BABEL 3.1.1

>  <MASTER>  (59) 
        0    0    0    0    0    0    0    0   58    0   58    0

>  <minimizedAffinity>  (59) 
-7.40814

>  <CNNscore>  (59) 
0.2910937667

>  <CNNaffinity>  (59) 
3.9340698719

>  <CNN_VS>  (59) 
1.1451832056

>  <CNNaffinity_variance>  (59) 
0.6380564570

$$$$
60
     RDKit          3D

 43 45  0  0  0  0  0  0  0  0999 V2000
   20.4951   75.4005   -2.5594 P   0  0  2  0  0  0  0  0  0  0  0  0
   20.9611   73.8566   -2.6888 O   0  0  0  0  0  0  0  0  0  0  0  0
   21.6028   76.4075   -2.6611 O   0  0  0  0  0  0  0  0  0  0  0  0
   19.6390   75.4340   -1.1869 O   0  0  0  0  0  0  0  0  0  0  0  0
   20.3371   75.5107    0.0438 C   0  0  0  0  0  0  0  0  0  0  0  0
   19.7515   73.2096    0.4123 O   0  0  0  0  0  0  0  0  0  0  0  0
   19.6277   73.9025    3.3270 O   0  0  0  0  0  0  0  0  0  0  0  0
   22.0573   72.6837    3.1085 O   0  0  0  0  0  0  0  0  0  0  0  0
   20.5141   74.3894    2.3207 C   0  0  1  0  0  0  0  0  0  0  0  0
   21.5377   73.3313    1.9651 C   0  0  2  0  0  0  0  0  0  0  0  0
   19.7258   74.5182    1.0233 C   0  0  1  0  0  0  0  0  0  0  0  0
   20.7305   72.3969    1.0801 C   0  0  2  0  0  0  0  0  0  0  0  0
   20.1085   73.8123    4.1652 H   0  0  0  0  0  0  0  0  0  0  0  0
   22.5625   73.3195    3.6388 H   0  0  0  0  0  0  0  0  0  0  0  0
   19.8927   70.1778   -0.4535 O   0  0  0  0  0  0  0  0  0  0  0  0
   23.9269   69.9552   -2.6710 O   0  0  0  0  0  0  0  0  0  0  0  0
   21.5414   71.7394    0.0944 N   0  0  0  0  0  0  0  0  0  0  0  0
   21.9020   70.0689   -1.5565 N   0  0  0  0  0  0  0  0  0  0  0  0
   21.0263   70.6328   -0.6201 C   0  0  0  0  0  0  0  0  0  0  0  0
   22.8320   72.1929   -0.1557 C   0  0  0  0  0  0  0  0  0  0  0  0
   23.6550   71.6433   -1.0511 C   0  0  0  0  0  0  0  0  0  0  0  0
   23.1939   70.4828   -1.8402 C   0  0  0  0  0  0  0  0  0  0  0  0
   21.5649   69.2965   -2.0659 H   0  0  0  0  0  0  0  0  0  0  0  0
   19.3579   75.5338   -3.7003 O   0  0  0  0  0  0  0  0  0  0  0  0
   18.2836   74.4628   -4.2586 P   0  0  2  0  0  0  0  0  0  0  0  0
   17.1908   75.3901   -5.0091 O   0  0  0  0  0  0  0  0  0  0  0  0
   17.7105   73.5597   -3.2050 O   0  0  0  0  0  0  0  0  0  0  0  0
   19.0541   73.6947   -5.4508 O   0  0  0  0  0  0  0  0  0  0  0  0
   18.0148   71.6841   -6.1535 O   0  0  0  0  0  0  0  0  0  0  0  0
   21.6810   71.2096   -7.9932 O   0  0  0  0  0  0  0  0  0  0  0  0
   19.3668   71.8215   -9.5801 O   0  0  0  0  0  0  0  0  0  0  0  0
   21.5324   72.3821   -5.3507 O   0  0  0  0  0  0  0  0  0  0  0  0
   20.5525   71.9408   -7.5063 C   0  0  1  0  0  0  0  0  0  0  0  0
   19.3009   71.4191   -8.2148 C   0  0  1  0  0  0  0  0  0  0  0  0
   20.4397   71.7376   -5.9965 C   0  0  2  0  0  0  0  0  0  0  0  0
   18.0251   71.9635   -7.5583 C   0  0  1  0  0  0  0  0  0  0  0  0
   19.1131   72.2707   -5.4524 C   0  0  1  0  0  0  0  0  0  0  0  0
   21.7585   71.3348   -8.9512 H   0  0  0  0  0  0  0  0  0  0  0  0
   20.1772   71.4717   -9.9828 H   0  0  0  0  0  0  0  0  0  0  0  0
   22.3663   72.0357   -5.7037 H   0  0  0  0  0  0  0  0  0  0  0  0
   17.1526   70.3294   -9.0674 O   0  0  0  0  0  0  0  0  0  0  0  0
   16.7650   71.3334   -8.1477 C   0  0  0  0  0  0  0  0  0  0  0  0
   16.3607   69.9194   -9.4503 H   0  0  0  0  0  0  0  0  0  0  0  0
 25 28  1  0
 25 24  1  0
 25 26  1  6
 25 27  2  0
  1  4  1  0
  1 24  1  0
  1  2  1  6
  1  3  2  0
  6 11  1  0
  6 12  1  0
 29 36  1  0
 29 37  1  0
  9  7  1  1
  7 13  1  0
 10  8  1  1
  8 14  1  0
 37 28  1  6
  4  5  1  0
 33 30  1  6
 30 38  1  0
 34 31  1  6
 31 39  1  0
 35 32  1  1
 32 40  1  0
 41 42  1  0
 41 43  1  0
 15 19  2  0
 16 22  2  0
 12 17  1  6
 17 19  1  0
 17 20  1  0
 18 19  1  0
 18 22  1  0
 18 23  1  0
  9 10  1  0
  9 11  1  0
 10 12  1  0
 11  5  1  6
 33 34  1  0
 33 35  1  0
 34 36  1  0
 35 37  1  0
 36 42  1  6
 20 21  2  0
 21 22  1  0
M  CHG  2   2  -1  26  -1
M  END
>  <COMPND>  (60) 
    8629 

>  <AUTHOR>  (60) 
    GENERATED BY OPEN BABEL 3.1.1

>  <MASTER>  (60) 
        0    0    0    0    0    0    0    0   58    0   58    0

>  <minimizedAffinity>  (60) 
-6.80828

>  <CNNscore>  (60) 
0.2909323573

>  <CNNaffinity>  (60) 
3.8412284851

>  <CNN_VS>  (60) 
1.1175376177

>  <CNNaffinity_variance>  (60) 
0.6349196434

$$$$
61
     RDKit          3D

 43 45  0  0  0  0  0  0  0  0999 V2000
   20.7862   70.0214   -1.9883 P   0  0  2  0  0  0  0  0  0  0  0  0
   22.3738   69.8103   -2.2169 O   0  0  0  0  0  0  0  0  0  0  0  0
   20.2411   69.4149   -0.7288 O   0  0  0  0  0  0  0  0  0  0  0  0
   20.1219   69.4947   -3.3664 O   0  0  0  0  0  0  0  0  0  0  0  0
   18.8705   68.8329   -3.3041 C   0  0  0  0  0  0  0  0  0  0  0  0
   18.0628   70.8464   -4.3373 O   0  0  0  0  0  0  0  0  0  0  0  0
   15.3954   70.1629   -3.1505 O   0  0  0  0  0  0  0  0  0  0  0  0
   15.1142   69.3658   -5.7432 O   0  0  0  0  0  0  0  0  0  0  0  0
   16.3968   69.2950   -3.6790 C   0  0  1  0  0  0  0  0  0  0  0  0
   16.4150   69.3725   -5.1913 C   0  0  2  0  0  0  0  0  0  0  0  0
   17.7586   69.8730   -3.3144 C   0  0  1  0  0  0  0  0  0  0  0  0
   17.1450   70.6832   -5.4309 C   0  0  2  0  0  0  0  0  0  0  0  0
   14.5168   69.8141   -3.3704 H   0  0  0  0  0  0  0  0  0  0  0  0
   14.6914   68.5114   -5.5645 H   0  0  0  0  0  0  0  0  0  0  0  0
   15.9706   70.8478   -7.9944 O   0  0  0  0  0  0  0  0  0  0  0  0
   20.0734   70.6690  -10.0864 O   0  0  0  0  0  0  0  0  0  0  0  0
   17.8826   70.6821   -6.6626 N   0  0  0  0  0  0  0  0  0  0  0  0
   18.0144   70.7588   -9.0339 N   0  0  0  0  0  0  0  0  0  0  0  0
   17.1968   70.7678   -7.8966 C   0  0  0  0  0  0  0  0  0  0  0  0
   19.2705   70.5972   -6.6391 C   0  0  0  0  0  0  0  0  0  0  0  0
   20.0355   70.5885   -7.7327 C   0  0  0  0  0  0  0  0  0  0  0  0
   19.3974   70.6747   -9.0622 C   0  0  0  0  0  0  0  0  0  0  0  0
   17.5586   70.8171   -9.9049 H   0  0  0  0  0  0  0  0  0  0  0  0
   20.6142   71.6254   -2.0919 O   0  0  0  0  0  0  0  0  0  0  0  0
   21.6765   72.8234   -1.8704 P   0  0  2  0  0  0  0  0  0  0  0  0
   23.1060   72.0684   -1.9346 O   0  0  0  0  0  0  0  0  0  0  0  0
   21.4529   73.6204   -0.6179 O   0  0  0  0  0  0  0  0  0  0  0  0
   21.6095   73.6859   -3.2330 O   0  0  0  0  0  0  0  0  0  0  0  0
   20.0188   73.5272   -4.9825 O   0  0  0  0  0  0  0  0  0  0  0  0
   23.3432   74.5569   -7.2048 O   0  0  0  0  0  0  0  0  0  0  0  0
   21.2585   76.4890   -6.7935 O   0  0  0  0  0  0  0  0  0  0  0  0
   23.6097   72.7459   -4.9623 O   0  0  0  0  0  0  0  0  0  0  0  0
   22.4853   74.5710   -6.0606 C   0  0  1  0  0  0  0  0  0  0  0  0
   21.1177   75.1033   -6.4931 C   0  0  1  0  0  0  0  0  0  0  0  0
   22.3607   73.1506   -5.5126 C   0  0  2  0  0  0  0  0  0  0  0  0
   20.0699   74.8993   -5.3905 C   0  0  1  0  0  0  0  0  0  0  0  0
   21.2580   73.0470   -4.4575 C   0  0  1  0  0  0  0  0  0  0  0  0
   23.4269   75.4559   -7.5573 H   0  0  0  0  0  0  0  0  0  0  0  0
   21.9233   76.6040   -7.4907 H   0  0  0  0  0  0  0  0  0  0  0  0
   24.2993   72.8157   -5.6401 H   0  0  0  0  0  0  0  0  0  0  0  0
   17.9084   74.0924   -6.0115 O   0  0  0  0  0  0  0  0  0  0  0  0
   18.6664   75.2782   -5.8582 C   0  0  0  0  0  0  0  0  0  0  0  0
   17.0126   74.3182   -6.3085 H   0  0  0  0  0  0  0  0  0  0  0  0
 25 28  1  0
 25 24  1  0
 25 26  1  1
 25 27  2  0
  1  4  1  0
  1 24  1  0
  1  2  1  6
  1  3  2  0
  6 11  1  0
  6 12  1  0
 29 36  1  0
 29 37  1  0
  9  7  1  1
  7 13  1  0
 10  8  1  1
  8 14  1  0
 37 28  1  1
  4  5  1  0
 33 30  1  6
 30 38  1  0
 34 31  1  1
 31 39  1  0
 35 32  1  1
 32 40  1  0
 41 42  1  0
 41 43  1  0
 15 19  2  0
 16 22  2  0
 12 17  1  6
 17 19  1  0
 17 20  1  0
 18 19  1  0
 18 22  1  0
 18 23  1  0
  9 10  1  0
  9 11  1  0
 10 12  1  0
 11  5  1  6
 33 34  1  0
 33 35  1  0
 34 36  1  0
 35 37  1  0
 36 42  1  6
 20 21  2  0
 21 22  1  0
M  CHG  2   2  -1  26  -1
M  END
>  <COMPND>  (61) 
    8629 

>  <AUTHOR>  (61) 
    GENERATED BY OPEN BABEL 3.1.1

>  <MASTER>  (61) 
        0    0    0    0    0    0    0    0   58    0   58    0

>  <minimizedAffinity>  (61) 
-7.59699

>  <CNNscore>  (61) 
0.6786108613

>  <CNNaffinity>  (61) 
4.4118947983

>  <CNN_VS>  (61) 
2.9939596653

>  <CNNaffinity_variance>  (61) 
0.7408627272

$$$$
62
     RDKit          3D

 43 45  0  0  0  0  0  0  0  0999 V2000
   22.4119   70.8644   -1.6154 P   0  0  2  0  0  0  0  0  0  0  0  0
   23.7541   70.0186   -1.9327 O   0  0  0  0  0  0  0  0  0  0  0  0
   21.5326   70.2810   -0.5486 O   0  0  0  0  0  0  0  0  0  0  0  0
   21.7224   71.0576   -3.0663 O   0  0  0  0  0  0  0  0  0  0  0  0
   20.9267   70.0049   -3.5823 C   0  0  0  0  0  0  0  0  0  0  0  0
   18.8591   71.0234   -4.2615 O   0  0  0  0  0  0  0  0  0  0  0  0
   17.5353   69.2388   -2.2482 O   0  0  0  0  0  0  0  0  0  0  0  0
   17.0432   67.9491   -4.6000 O   0  0  0  0  0  0  0  0  0  0  0  0
   18.6536   68.9721   -3.0929 C   0  0  1  0  0  0  0  0  0  0  0  0
   18.1957   68.7630   -4.5212 C   0  0  2  0  0  0  0  0  0  0  0  0
   19.4724   70.2521   -3.2055 C   0  0  1  0  0  0  0  0  0  0  0  0
   17.9377   70.1879   -4.9811 C   0  0  2  0  0  0  0  0  0  0  0  0
   16.9974   68.4356   -2.1609 H   0  0  0  0  0  0  0  0  0  0  0  0
   17.2586   67.0533   -4.2969 H   0  0  0  0  0  0  0  0  0  0  0  0
   15.9110   70.0319   -6.9423 O   0  0  0  0  0  0  0  0  0  0  0  0
   18.8971   70.8516  -10.3559 O   0  0  0  0  0  0  0  0  0  0  0  0
   18.1574   70.3569   -6.3899 N   0  0  0  0  0  0  0  0  0  0  0  0
   17.3995   70.4404   -8.6404 N   0  0  0  0  0  0  0  0  0  0  0  0
   17.0716   70.2583   -7.2908 C   0  0  0  0  0  0  0  0  0  0  0  0
   19.4381   70.6177   -6.8651 C   0  0  0  0  0  0  0  0  0  0  0  0
   19.7343   70.7875   -8.1553 C   0  0  0  0  0  0  0  0  0  0  0  0
   18.6569   70.7002   -9.1621 C   0  0  0  0  0  0  0  0  0  0  0  0
   16.6591   70.3757   -9.2864 H   0  0  0  0  0  0  0  0  0  0  0  0
   22.9821   72.3403   -1.2845 O   0  0  0  0  0  0  0  0  0  0  0  0
   22.3149   73.8014   -1.4664 P   0  0  2  0  0  0  0  0  0  0  0  0
   23.2326   74.7477   -0.5283 O   0  0  0  0  0  0  0  0  0  0  0  0
   20.8481   73.8518   -1.1503 O   0  0  0  0  0  0  0  0  0  0  0  0
   22.6894   74.2366   -2.9748 O   0  0  0  0  0  0  0  0  0  0  0  0
   22.7464   76.2597   -4.2079 O   0  0  0  0  0  0  0  0  0  0  0  0
   20.7838   73.8727   -6.9467 O   0  0  0  0  0  0  0  0  0  0  0  0
   23.5107   74.6348   -7.4273 O   0  0  0  0  0  0  0  0  0  0  0  0
   20.2081   73.6036   -4.1226 O   0  0  0  0  0  0  0  0  0  0  0  0
   21.7240   74.1627   -5.9088 C   0  0  1  0  0  0  0  0  0  0  0  0
   22.6926   75.2293   -6.4235 C   0  0  1  0  0  0  0  0  0  0  0  0
   20.9708   74.6685   -4.6799 C   0  0  2  0  0  0  0  0  0  0  0  0
   23.5607   75.7844   -5.2862 C   0  0  1  0  0  0  0  0  0  0  0  0
   21.9236   75.2440   -3.6307 C   0  0  1  0  0  0  0  0  0  0  0  0
   21.2555   73.5506   -7.7298 H   0  0  0  0  0  0  0  0  0  0  0  0
   22.9504   74.2879   -8.1392 H   0  0  0  0  0  0  0  0  0  0  0  0
   19.6087   73.2481   -4.7966 H   0  0  0  0  0  0  0  0  0  0  0  0
   25.5428   76.4474   -6.4442 O   0  0  0  0  0  0  0  0  0  0  0  0
   24.4226   76.9585   -5.7454 C   0  0  0  0  0  0  0  0  0  0  0  0
   26.1003   77.1834   -6.7427 H   0  0  0  0  0  0  0  0  0  0  0  0
 25 28  1  0
 25 24  1  0
 25 26  1  1
 25 27  2  0
  1  4  1  0
  1 24  1  0
  1  2  1  6
  1  3  2  0
  6 11  1  0
  6 12  1  0
 29 36  1  0
 29 37  1  0
  9  7  1  1
  7 13  1  0
 10  8  1  1
  8 14  1  0
 37 28  1  6
  4  5  1  0
 33 30  1  6
 30 38  1  0
 34 31  1  6
 31 39  1  0
 35 32  1  1
 32 40  1  0
 41 42  1  0
 41 43  1  0
 15 19  2  0
 16 22  2  0
 12 17  1  6
 17 19  1  0
 17 20  1  0
 18 19  1  0
 18 22  1  0
 18 23  1  0
  9 10  1  0
  9 11  1  0
 10 12  1  0
 11  5  1  6
 33 34  1  0
 33 35  1  0
 34 36  1  0
 35 37  1  0
 36 42  1  6
 20 21  2  0
 21 22  1  0
M  CHG  2   2  -1  26  -1
M  END
>  <COMPND>  (62) 
    8629 

>  <AUTHOR>  (62) 
    GENERATED BY OPEN BABEL 3.1.1

>  <MASTER>  (62) 
        0    0    0    0    0    0    0    0   58    0   58    0

>  <minimizedAffinity>  (62) 
-7.04790

>  <CNNscore>  (62) 
0.5514616370

>  <CNNaffinity>  (62) 
4.4357976913

>  <CNN_VS>  (62) 
2.4461722374

>  <CNNaffinity_variance>  (62) 
0.1437496841

$$$$
63
     RDKit          3D

 43 45  0  0  0  0  0  0  0  0999 V2000
   23.4821   70.7165   -2.2295 P   0  0  2  0  0  0  0  0  0  0  0  0
   23.8628   71.5704   -3.5498 O   0  0  0  0  0  0  0  0  0  0  0  0
   24.6349   70.0136   -1.5751 O   0  0  0  0  0  0  0  0  0  0  0  0
   22.2662   69.7674   -2.7180 O   0  0  0  0  0  0  0  0  0  0  0  0
   21.4469   70.2134   -3.7846 C   0  0  0  0  0  0  0  0  0  0  0  0
   19.2870   71.1445   -4.2764 O   0  0  0  0  0  0  0  0  0  0  0  0
   18.2398   69.3957   -2.0774 O   0  0  0  0  0  0  0  0  0  0  0  0
   17.5496   68.0073   -4.3207 O   0  0  0  0  0  0  0  0  0  0  0  0
   19.2727   69.1319   -3.0255 C   0  0  1  0  0  0  0  0  0  0  0  0
   18.6761   68.8575   -4.3902 C   0  0  2  0  0  0  0  0  0  0  0  0
   20.0321   70.4307   -3.2656 C   0  0  1  0  0  0  0  0  0  0  0  0
   18.3244   70.2563   -4.8674 C   0  0  2  0  0  0  0  0  0  0  0  0
   17.7410   68.5806   -1.9076 H   0  0  0  0  0  0  0  0  0  0  0  0
   17.8250   67.1299   -4.0124 H   0  0  0  0  0  0  0  0  0  0  0  0
   16.1469   69.8122   -6.6108 O   0  0  0  0  0  0  0  0  0  0  0  0
   18.6961   70.7604  -10.3315 O   0  0  0  0  0  0  0  0  0  0  0  0
   18.3909   70.3804   -6.2962 N   0  0  0  0  0  0  0  0  0  0  0  0
   17.4179   70.2849   -8.4620 N   0  0  0  0  0  0  0  0  0  0  0  0
   17.2401   70.1345   -7.0808 C   0  0  0  0  0  0  0  0  0  0  0  0
   19.5873   70.7428   -6.9054 C   0  0  0  0  0  0  0  0  0  0  0  0
   19.7408   70.8807   -8.2240 C   0  0  0  0  0  0  0  0  0  0  0  0
   18.5870   70.6419   -9.1150 C   0  0  0  0  0  0  0  0  0  0  0  0
   16.6299   70.1182   -9.0286 H   0  0  0  0  0  0  0  0  0  0  0  0
   22.7395   71.8056   -1.2939 O   0  0  0  0  0  0  0  0  0  0  0  0
   21.8803   71.6289    0.0639 P   0  0  2  0  0  0  0  0  0  0  0  0
   22.9927   71.1851    1.1517 O   0  0  0  0  0  0  0  0  0  0  0  0
   20.7223   70.6815   -0.0595 O   0  0  0  0  0  0  0  0  0  0  0  0
   21.4726   73.1320    0.4878 O   0  0  0  0  0  0  0  0  0  0  0  0
   22.5868   75.2156    0.3042 O   0  0  0  0  0  0  0  0  0  0  0  0
   20.9631   75.6655    4.0741 O   0  0  0  0  0  0  0  0  0  0  0  0
   19.8722   77.1539    1.8735 O   0  0  0  0  0  0  0  0  0  0  0  0
   21.9960   73.0917    3.2445 O   0  0  0  0  0  0  0  0  0  0  0  0
   20.9992   75.2196    2.7157 C   0  0  1  0  0  0  0  0  0  0  0  0
   21.1084   76.4482    1.8104 C   0  0  1  0  0  0  0  0  0  0  0  0
   22.2046   74.3013    2.5236 C   0  0  2  0  0  0  0  0  0  0  0  0
   21.4196   76.0439    0.3631 C   0  0  1  0  0  0  0  0  0  0  0  0
   22.4557   74.0006    1.0448 C   0  0  1  0  0  0  0  0  0  0  0  0
   20.1997   76.2487    4.2029 H   0  0  0  0  0  0  0  0  0  0  0  0
   19.6872   77.4030    2.7927 H   0  0  0  0  0  0  0  0  0  0  0  0
   21.8385   73.2955    4.1792 H   0  0  0  0  0  0  0  0  0  0  0  0
   22.0661   78.3432    0.3014 O   0  0  0  0  0  0  0  0  0  0  0  0
   21.6884   77.2572   -0.5245 C   0  0  0  0  0  0  0  0  0  0  0  0
   22.2407   79.1225   -0.2499 H   0  0  0  0  0  0  0  0  0  0  0  0
 25 28  1  0
 25 24  1  0
 25 26  1  1
 25 27  2  0
  1  4  1  0
  1 24  1  0
  1  2  1  6
  1  3  2  0
  6 11  1  0
  6 12  1  0
 29 36  1  0
 29 37  1  0
  9  7  1  1
  7 13  1  0
 10  8  1  1
  8 14  1  0
 37 28  1  6
  4  5  1  0
 33 30  1  1
 30 38  1  0
 34 31  1  6
 31 39  1  0
 35 32  1  1
 32 40  1  0
 41 42  1  0
 41 43  1  0
 15 19  2  0
 16 22  2  0
 12 17  1  6
 17 19  1  0
 17 20  1  0
 18 19  1  0
 18 22  1  0
 18 23  1  0
  9 10  1  0
  9 11  1  0
 10 12  1  0
 11  5  1  6
 33 34  1  0
 33 35  1  0
 34 36  1  0
 35 37  1  0
 36 42  1  6
 20 21  2  0
 21 22  1  0
M  CHG  2   2  -1  26  -1
M  END
>  <COMPND>  (63) 
    8629 

>  <AUTHOR>  (63) 
    GENERATED BY OPEN BABEL 3.1.1

>  <MASTER>  (63) 
        0    0    0    0    0    0    0    0   58    0   58    0

>  <minimizedAffinity>  (63) 
-8.02684

>  <CNNscore>  (63) 
0.4926615655

>  <CNNaffinity>  (63) 
4.5257129669

>  <CNN_VS>  (63) 
2.2296447754

>  <CNNaffinity_variance>  (63) 
0.0594172068

$$$$
64
     RDKit          3D

 43 45  0  0  0  0  0  0  0  0999 V2000
   22.7949   72.6553   -3.7650 P   0  0  2  0  0  0  0  0  0  0  0  0
   24.1981   72.7779   -4.5609 O   0  0  0  0  0  0  0  0  0  0  0  0
   22.4404   73.8427   -2.9189 O   0  0  0  0  0  0  0  0  0  0  0  0
   22.9148   71.2449   -2.9814 O   0  0  0  0  0  0  0  0  0  0  0  0
   23.4592   71.2423   -1.6732 C   0  0  0  0  0  0  0  0  0  0  0  0
   22.6161   71.1404    0.5746 O   0  0  0  0  0  0  0  0  0  0  0  0
   20.2836   69.6419   -0.5674 O   0  0  0  0  0  0  0  0  0  0  0  0
   19.2775   72.1568   -0.2519 O   0  0  0  0  0  0  0  0  0  0  0  0
   21.0286   70.7188   -1.1335 C   0  0  1  0  0  0  0  0  0  0  0  0
   20.6700   72.0223   -0.4508 C   0  0  2  0  0  0  0  0  0  0  0  0
   22.4879   70.5412   -0.7334 C   0  0  1  0  0  0  0  0  0  0  0  0
   21.4395   71.9162    0.8548 C   0  0  2  0  0  0  0  0  0  0  0  0
   19.3482   69.7335   -0.8097 H   0  0  0  0  0  0  0  0  0  0  0  0
   18.8326   72.2204   -1.1114 H   0  0  0  0  0  0  0  0  0  0  0  0
   21.9832   72.4588    3.5729 O   0  0  0  0  0  0  0  0  0  0  0  0
   22.9543   76.8761    2.6864 O   0  0  0  0  0  0  0  0  0  0  0  0
   21.8368   73.1993    1.3622 N   0  0  0  0  0  0  0  0  0  0  0  0
   22.4665   74.6578    3.1293 N   0  0  0  0  0  0  0  0  0  0  0  0
   22.0850   73.3661    2.7446 C   0  0  0  0  0  0  0  0  0  0  0  0
   21.9770   74.2752    0.4924 C   0  0  0  0  0  0  0  0  0  0  0  0
   22.3403   75.5010    0.8754 C   0  0  0  0  0  0  0  0  0  0  0  0
   22.6183   75.7599    2.3029 C   0  0  0  0  0  0  0  0  0  0  0  0
   22.6443   74.7978    4.0877 H   0  0  0  0  0  0  0  0  0  0  0  0
   21.7366   72.3281   -4.9423 O   0  0  0  0  0  0  0  0  0  0  0  0
   21.4750   73.0493   -6.3651 P   0  0  2  0  0  0  0  0  0  0  0  0
   22.6250   72.4234   -7.3154 O   0  0  0  0  0  0  0  0  0  0  0  0
   21.4714   74.5493   -6.3032 O   0  0  0  0  0  0  0  0  0  0  0  0
   20.1004   72.3989   -6.9060 O   0  0  0  0  0  0  0  0  0  0  0  0
   19.0588   70.4217   -6.1173 O   0  0  0  0  0  0  0  0  0  0  0  0
   17.8807   70.2558  -10.0715 O   0  0  0  0  0  0  0  0  0  0  0  0
   15.9566   70.9196   -8.0454 O   0  0  0  0  0  0  0  0  0  0  0  0
   20.5397   71.1784   -9.3945 O   0  0  0  0  0  0  0  0  0  0  0  0
   18.2136   70.8964   -8.8369 C   0  0  1  0  0  0  0  0  0  0  0  0
   17.2497   70.3933   -7.7605 C   0  0  1  0  0  0  0  0  0  0  0  0
   19.6561   70.5536   -8.4697 C   0  0  2  0  0  0  0  0  0  0  0  0
   17.7067   70.8270   -6.3612 C   0  0  1  0  0  0  0  0  0  0  0  0
   19.9928   70.9842   -7.0409 C   0  0  1  0  0  0  0  0  0  0  0  0
   16.9661   70.4699  -10.3107 H   0  0  0  0  0  0  0  0  0  0  0  0
   15.6800   70.6388   -8.9319 H   0  0  0  0  0  0  0  0  0  0  0  0
   20.3164   70.8975  -10.2951 H   0  0  0  0  0  0  0  0  0  0  0  0
   17.1899   68.8357   -5.1461 O   0  0  0  0  0  0  0  0  0  0  0  0
   16.8493   70.2050   -5.2611 C   0  0  0  0  0  0  0  0  0  0  0  0
   16.6522   68.4268   -4.4493 H   0  0  0  0  0  0  0  0  0  0  0  0
 25 28  1  0
 25 24  1  0
 25 26  1  6
 25 27  2  0
  1  4  1  0
  1 24  1  0
  1  2  1  6
  1  3  2  0
  6 11  1  0
  6 12  1  0
 29 36  1  0
 29 37  1  0
  9  7  1  1
  7 13  1  0
 10  8  1  1
  8 14  1  0
 37 28  1  6
  4  5  1  0
 33 30  1  6
 30 38  1  0
 34 31  1  6
 31 39  1  0
 35 32  1  6
 32 40  1  0
 41 42  1  0
 41 43  1  0
 15 19  2  0
 16 22  2  0
 12 17  1  6
 17 19  1  0
 17 20  1  0
 18 19  1  0
 18 22  1  0
 18 23  1  0
  9 10  1  0
  9 11  1  0
 10 12  1  0
 11  5  1  6
 33 34  1  0
 33 35  1  0
 34 36  1  0
 35 37  1  0
 36 42  1  1
 20 21  2  0
 21 22  1  0
M  CHG  2   2  -1  26  -1
M  END
>  <COMPND>  (64) 
    8629 

>  <AUTHOR>  (64) 
    GENERATED BY OPEN BABEL 3.1.1

>  <MASTER>  (64) 
        0    0    0    0    0    0    0    0   58    0   58    0

>  <minimizedAffinity>  (64) 
-8.45145

>  <CNNscore>  (64) 
0.4561088681

>  <CNNaffinity>  (64) 
4.1376605034

>  <CNN_VS>  (64) 
1.8872236013

>  <CNNaffinity_variance>  (64) 
0.1700690985

$$$$
65
     RDKit          3D

 43 45  0  0  0  0  0  0  0  0999 V2000
   22.7815   73.5720   -5.1639 P   0  0  2  0  0  0  0  0  0  0  0  0
   23.1720   74.0725   -6.6519 O   0  0  0  0  0  0  0  0  0  0  0  0
   23.8730   72.8479   -4.4319 O   0  0  0  0  0  0  0  0  0  0  0  0
   21.4101   72.7413   -5.3809 O   0  0  0  0  0  0  0  0  0  0  0  0
   20.3287   73.3808   -6.0361 C   0  0  0  0  0  0  0  0  0  0  0  0
   19.7651   71.2299   -6.9468 O   0  0  0  0  0  0  0  0  0  0  0  0
   18.7712   72.7173   -9.3531 O   0  0  0  0  0  0  0  0  0  0  0  0
   16.4659   72.1486   -8.0119 O   0  0  0  0  0  0  0  0  0  0  0  0
   18.7094   73.0851   -7.9761 C   0  0  1  0  0  0  0  0  0  0  0  0
   17.6565   72.2655   -7.2597 C   0  0  2  0  0  0  0  0  0  0  0  0
   19.9925   72.6104   -7.3056 C   0  0  1  0  0  0  0  0  0  0  0  0
   18.3648   70.9341   -7.0757 C   0  0  2  0  0  0  0  0  0  0  0  0
   17.9624   73.0104   -9.8025 H   0  0  0  0  0  0  0  0  0  0  0  0
   16.0527   73.0216   -8.1012 H   0  0  0  0  0  0  0  0  0  0  0  0
   15.8167   69.7518   -6.7803 O   0  0  0  0  0  0  0  0  0  0  0  0
   16.7869   68.2897   -2.5186 O   0  0  0  0  0  0  0  0  0  0  0  0
   17.9251   70.2378   -5.8996 N   0  0  0  0  0  0  0  0  0  0  0  0
   16.3019   69.0246   -4.6586 N   0  0  0  0  0  0  0  0  0  0  0  0
   16.6256   69.6814   -5.8527 C   0  0  0  0  0  0  0  0  0  0  0  0
   18.7787   70.1118   -4.8091 C   0  0  0  0  0  0  0  0  0  0  0  0
   18.4544   69.4835   -3.6771 C   0  0  0  0  0  0  0  0  0  0  0  0
   17.1152   68.8741   -3.5466 C   0  0  0  0  0  0  0  0  0  0  0  0
   15.4016   68.6295   -4.6030 H   0  0  0  0  0  0  0  0  0  0  0  0
   22.2748   74.9284   -4.4454 O   0  0  0  0  0  0  0  0  0  0  0  0
   22.0762   75.2916   -2.8828 P   0  0  2  0  0  0  0  0  0  0  0  0
   20.8307   76.3241   -2.8972 O   0  0  0  0  0  0  0  0  0  0  0  0
   23.3111   75.8202   -2.2122 O   0  0  0  0  0  0  0  0  0  0  0  0
   21.4812   73.9444   -2.2227 O   0  0  0  0  0  0  0  0  0  0  0  0
   22.3952   73.6559   -0.0552 O   0  0  0  0  0  0  0  0  0  0  0  0
   20.3528   70.0829   -0.3908 O   0  0  0  0  0  0  0  0  0  0  0  0
   19.3530   72.1286    1.3594 O   0  0  0  0  0  0  0  0  0  0  0  0
   21.7174   71.1878   -2.6923 O   0  0  0  0  0  0  0  0  0  0  0  0
   20.5737   71.4814   -0.5930 C   0  0  1  0  0  0  0  0  0  0  0  0
   20.6532   72.1573    0.7773 C   0  0  1  0  0  0  0  0  0  0  0  0
   21.8781   71.6743   -1.3642 C   0  0  2  0  0  0  0  0  0  0  0  0
   21.1516   73.6034    0.6536 C   0  0  1  0  0  0  0  0  0  0  0  0
   22.3098   73.1417   -1.3857 C   0  0  1  0  0  0  0  0  0  0  0  0
   19.5258   69.9534    0.0979 H   0  0  0  0  0  0  0  0  0  0  0  0
   19.0499   71.2099    1.4315 H   0  0  0  0  0  0  0  0  0  0  0  0
   21.4444   70.2579   -2.6651 H   0  0  0  0  0  0  0  0  0  0  0  0
   20.9423   73.3498    3.0202 O   0  0  0  0  0  0  0  0  0  0  0  0
   21.3887   74.2454    2.0187 C   0  0  0  0  0  0  0  0  0  0  0  0
   21.0873   73.7450    3.8945 H   0  0  0  0  0  0  0  0  0  0  0  0
 25 28  1  0
 25 24  1  0
 25 26  1  6
 25 27  2  0
  1  4  1  0
  1 24  1  0
  1  2  1  6
  1  3  2  0
  6 11  1  0
  6 12  1  0
 29 36  1  0
 29 37  1  0
  9  7  1  6
  7 13  1  0
 10  8  1  6
  8 14  1  0
 37 28  1  6
  4  5  1  0
 33 30  1  1
 30 38  1  0
 34 31  1  6
 31 39  1  0
 35 32  1  6
 32 40  1  0
 41 42  1  0
 41 43  1  0
 15 19  2  0
 16 22  2  0
 12 17  1  1
 17 19  1  0
 17 20  1  0
 18 19  1  0
 18 22  1  0
 18 23  1  0
  9 10  1  0
  9 11  1  0
 10 12  1  0
 11  5  1  1
 33 34  1  0
 33 35  1  0
 34 36  1  0
 35 37  1  0
 36 42  1  1
 20 21  2  0
 21 22  1  0
M  CHG  2   2  -1  26  -1
M  END
>  <COMPND>  (65) 
    8629 

>  <AUTHOR>  (65) 
    GENERATED BY OPEN BABEL 3.1.1

>  <MASTER>  (65) 
        0    0    0    0    0    0    0    0   58    0   58    0

>  <minimizedAffinity>  (65) 
-7.46780

>  <CNNscore>  (65) 
0.4547503889

>  <CNNaffinity>  (65) 
4.1311445236

>  <CNN_VS>  (65) 
1.8786395788

>  <CNNaffinity_variance>  (65) 
0.4681271911

$$$$
66
     RDKit          3D

 43 45  0  0  0  0  0  0  0  0999 V2000
   17.6871   76.1292   -4.5539 P   0  0  2  0  0  0  0  0  0  0  0  0
   16.2057   75.4825   -4.4856 O   0  0  0  0  0  0  0  0  0  0  0  0
   17.7225   77.6284   -4.6037 O   0  0  0  0  0  0  0  0  0  0  0  0
   18.3861   75.3681   -5.7990 O   0  0  0  0  0  0  0  0  0  0  0  0
   17.6256   74.4166   -6.5229 C   0  0  0  0  0  0  0  0  0  0  0  0
   19.1615   72.5709   -6.6131 O   0  0  0  0  0  0  0  0  0  0  0  0
   18.7893   72.6493   -9.5874 O   0  0  0  0  0  0  0  0  0  0  0  0
   17.1857   70.5733   -8.8422 O   0  0  0  0  0  0  0  0  0  0  0  0
   17.8392   72.8971   -8.5524 C   0  0  1  0  0  0  0  0  0  0  0  0
   17.4242   71.5964   -7.8971 C   0  0  2  0  0  0  0  0  0  0  0  0
   18.5596   73.6105   -7.4151 C   0  0  1  0  0  0  0  0  0  0  0  0
   18.6158   71.2999   -7.0026 C   0  0  2  0  0  0  0  0  0  0  0  0
   18.3523   72.1945  -10.3251 H   0  0  0  0  0  0  0  0  0  0  0  0
   16.4183   70.8085   -9.3868 H   0  0  0  0  0  0  0  0  0  0  0  0
   20.4304   70.4862   -4.9968 O   0  0  0  0  0  0  0  0  0  0  0  0
   17.0876   68.5018   -2.5211 O   0  0  0  0  0  0  0  0  0  0  0  0
   18.2468   70.5696   -5.8229 N   0  0  0  0  0  0  0  0  0  0  0  0
   18.7644   69.4989   -3.7656 N   0  0  0  0  0  0  0  0  0  0  0  0
   19.2352   70.2085   -4.8778 C   0  0  0  0  0  0  0  0  0  0  0  0
   16.9177   70.2193   -5.6121 C   0  0  0  0  0  0  0  0  0  0  0  0
   16.4852   69.5414   -4.5469 C   0  0  0  0  0  0  0  0  0  0  0  0
   17.4539   69.1261   -3.5120 C   0  0  0  0  0  0  0  0  0  0  0  0
   19.4352   69.2364   -3.0941 H   0  0  0  0  0  0  0  0  0  0  0  0
   18.4261   75.4810   -3.2707 O   0  0  0  0  0  0  0  0  0  0  0  0
   18.8532   73.9553   -2.9501 P   0  0  2  0  0  0  0  0  0  0  0  0
   20.2504   73.7856   -3.7478 O   0  0  0  0  0  0  0  0  0  0  0  0
   17.8094   72.9364   -3.3057 O   0  0  0  0  0  0  0  0  0  0  0  0
   19.2725   73.9673   -1.3916 O   0  0  0  0  0  0  0  0  0  0  0  0
   19.2087   71.6574   -0.8655 O   0  0  0  0  0  0  0  0  0  0  0  0
   20.7345   73.1019    2.6893 O   0  0  0  0  0  0  0  0  0  0  0  0
   22.4475   71.6547    0.8951 O   0  0  0  0  0  0  0  0  0  0  0  0
   18.6930   74.5951    1.2815 O   0  0  0  0  0  0  0  0  0  0  0  0
   20.5498   73.0610    1.2717 C   0  0  1  0  0  0  0  0  0  0  0  0
   21.0293   71.6994    0.7647 C   0  0  1  0  0  0  0  0  0  0  0  0
   19.0688   73.2614    0.9553 C   0  0  2  0  0  0  0  0  0  0  0  0
   20.6198   71.4772   -0.6975 C   0  0  1  0  0  0  0  0  0  0  0  0
   18.7604   72.9679   -0.5140 C   0  0  1  0  0  0  0  0  0  0  0  0
   21.6728   72.9757    2.8970 H   0  0  0  0  0  0  0  0  0  0  0  0
   22.6927   71.7968    1.8229 H   0  0  0  0  0  0  0  0  0  0  0  0
   18.8930   74.7684    2.2141 H   0  0  0  0  0  0  0  0  0  0  0  0
   19.8366   69.2300   -0.9109 O   0  0  0  0  0  0  0  0  0  0  0  0
   20.9491   70.0647   -1.1753 C   0  0  0  0  0  0  0  0  0  0  0  0
   20.0317   68.3277   -1.2100 H   0  0  0  0  0  0  0  0  0  0  0  0
 25 28  1  0
 25 24  1  0
 25 26  1  6
 25 27  2  0
  1  4  1  0
  1 24  1  0
  1  2  1  1
  1  3  2  0
  6 11  1  0
  6 12  1  0
 29 36  1  0
 29 37  1  0
  9  7  1  6
  7 13  1  0
 10  8  1  6
  8 14  1  0
 37 28  1  6
  4  5  1  0
 33 30  1  1
 30 38  1  0
 34 31  1  6
 31 39  1  0
 35 32  1  6
 32 40  1  0
 41 42  1  0
 41 43  1  0
 15 19  2  0
 16 22  2  0
 12 17  1  1
 17 19  1  0
 17 20  1  0
 18 19  1  0
 18 22  1  0
 18 23  1  0
  9 10  1  0
  9 11  1  0
 10 12  1  0
 11  5  1  1
 33 34  1  0
 33 35  1  0
 34 36  1  0
 35 37  1  0
 36 42  1  1
 20 21  2  0
 21 22  1  0
M  CHG  2   2  -1  26  -1
M  END
>  <COMPND>  (66) 
    8629 

>  <AUTHOR>  (66) 
    GENERATED BY OPEN BABEL 3.1.1

>  <MASTER>  (66) 
        0    0    0    0    0    0    0    0   58    0   58    0

>  <minimizedAffinity>  (66) 
-6.77158

>  <CNNscore>  (66) 
0.4524636865

>  <CNNaffinity>  (66) 
4.0129761696

>  <CNN_VS>  (66) 
1.8157260418

>  <CNNaffinity_variance>  (66) 
0.6758022904

$$$$
67
     RDKit          3D

 43 45  0  0  0  0  0  0  0  0999 V2000
   20.8901   70.3037   -1.4745 P   0  0  2  0  0  0  0  0  0  0  0  0
   22.1722   69.7671   -2.3025 O   0  0  0  0  0  0  0  0  0  0  0  0
   20.1527   69.2532   -0.6972 O   0  0  0  0  0  0  0  0  0  0  0  0
   20.0188   71.1003   -2.5809 O   0  0  0  0  0  0  0  0  0  0  0  0
   20.6328   72.1644   -3.2870 C   0  0  0  0  0  0  0  0  0  0  0  0
   20.1533   70.5269   -4.9788 O   0  0  0  0  0  0  0  0  0  0  0  0
   21.3411   72.4690   -6.9304 O   0  0  0  0  0  0  0  0  0  0  0  0
   18.6619   72.8294   -7.2890 O   0  0  0  0  0  0  0  0  0  0  0  0
   20.5554   72.7251   -5.7675 C   0  0  1  0  0  0  0  0  0  0  0  0
   19.1044   72.3763   -6.0258 C   0  0  2  0  0  0  0  0  0  0  0  0
   20.9435   71.7046   -4.7048 C   0  0  1  0  0  0  0  0  0  0  0  0
   19.1213   70.8607   -5.9214 C   0  0  2  0  0  0  0  0  0  0  0  0
   21.1111   73.1087   -7.6231 H   0  0  0  0  0  0  0  0  0  0  0  0
   18.6690   73.7991   -7.3055 H   0  0  0  0  0  0  0  0  0  0  0  0
   16.9344   70.2174   -7.5891 O   0  0  0  0  0  0  0  0  0  0  0  0
   14.3786   68.8328   -4.0125 O   0  0  0  0  0  0  0  0  0  0  0  0
   17.8723   70.3301   -5.4526 N   0  0  0  0  0  0  0  0  0  0  0  0
   15.6637   69.5283   -5.8069 N   0  0  0  0  0  0  0  0  0  0  0  0
   16.8376   70.0419   -6.3728 C   0  0  0  0  0  0  0  0  0  0  0  0
   17.6831   70.1005   -4.0942 C   0  0  0  0  0  0  0  0  0  0  0  0
   16.5571   69.6115   -3.5704 C   0  0  0  0  0  0  0  0  0  0  0  0
   15.4270   69.2837   -4.4635 C   0  0  0  0  0  0  0  0  0  0  0  0
   14.9290   69.3204   -6.4288 H   0  0  0  0  0  0  0  0  0  0  0  0
   21.5110   71.4945   -0.5747 O   0  0  0  0  0  0  0  0  0  0  0  0
   20.8518   72.3964    0.5936 P   0  0  2  0  0  0  0  0  0  0  0  0
   21.9254   72.2849    1.7988 O   0  0  0  0  0  0  0  0  0  0  0  0
   19.4554   71.9927    0.9688 O   0  0  0  0  0  0  0  0  0  0  0  0
   20.9896   73.9149    0.0642 O   0  0  0  0  0  0  0  0  0  0  0  0
   20.1611   75.3510    1.7577 O   0  0  0  0  0  0  0  0  0  0  0  0
   20.9534   78.1618   -1.1616 O   0  0  0  0  0  0  0  0  0  0  0  0
   22.6472   78.0047    1.1524 O   0  0  0  0  0  0  0  0  0  0  0  0
   19.8717   75.5800   -1.8987 O   0  0  0  0  0  0  0  0  0  0  0  0
   21.1717   76.9618   -0.4148 C   0  0  1  0  0  0  0  0  0  0  0  0
   21.3898   77.3421    1.0510 C   0  0  1  0  0  0  0  0  0  0  0  0
   19.9509   76.0551   -0.5591 C   0  0  2  0  0  0  0  0  0  0  0  0
   21.3649   76.1020    1.9547 C   0  0  1  0  0  0  0  0  0  0  0  0
   20.0018   74.8794    0.4183 C   0  0  1  0  0  0  0  0  0  0  0  0
   21.7252   78.7418   -1.0746 H   0  0  0  0  0  0  0  0  0  0  0  0
   22.6499   78.7855    0.5767 H   0  0  0  0  0  0  0  0  0  0  0  0
   19.8397   76.3337   -2.5076 H   0  0  0  0  0  0  0  0  0  0  0  0
   20.5154   75.6452    4.1407 O   0  0  0  0  0  0  0  0  0  0  0  0
   21.4227   76.4719    3.4352 C   0  0  0  0  0  0  0  0  0  0  0  0
   20.5417   75.8692    5.0845 H   0  0  0  0  0  0  0  0  0  0  0  0
 25 28  1  0
 25 24  1  0
 25 26  1  1
 25 27  2  0
  1  4  1  0
  1 24  1  0
  1  2  1  6
  1  3  2  0
  6 11  1  0
  6 12  1  0
 29 36  1  0
 29 37  1  0
  9  7  1  6
  7 13  1  0
 10  8  1  6
  8 14  1  0
 37 28  1  6
  4  5  1  0
 33 30  1  6
 30 38  1  0
 34 31  1  6
 31 39  1  0
 35 32  1  6
 32 40  1  0
 41 42  1  0
 41 43  1  0
 15 19  2  0
 16 22  2  0
 12 17  1  1
 17 19  1  0
 17 20  1  0
 18 19  1  0
 18 22  1  0
 18 23  1  0
  9 10  1  0
  9 11  1  0
 10 12  1  0
 11  5  1  1
 33 34  1  0
 33 35  1  0
 34 36  1  0
 35 37  1  0
 36 42  1  1
 20 21  2  0
 21 22  1  0
M  CHG  2   2  -1  26  -1
M  END
>  <COMPND>  (67) 
    8629 

>  <AUTHOR>  (67) 
    GENERATED BY OPEN BABEL 3.1.1

>  <MASTER>  (67) 
        0    0    0    0    0    0    0    0   58    0   58    0

>  <minimizedAffinity>  (67) 
-7.01779

>  <CNNscore>  (67) 
0.4519039690

>  <CNNaffinity>  (67) 
4.1773424149

>  <CNN_VS>  (67) 
1.8877576590

>  <CNNaffinity_variance>  (67) 
0.2105858773

$$$$
68
     RDKit          3D

 43 45  0  0  0  0  0  0  0  0999 V2000
   20.7376   70.5140   -1.4270 P   0  0  2  0  0  0  0  0  0  0  0  0
   22.2299   70.1010   -1.8960 O   0  0  0  0  0  0  0  0  0  0  0  0
   19.9881   69.4465   -0.6853 O   0  0  0  0  0  0  0  0  0  0  0  0
   20.0382   71.0496   -2.7842 O   0  0  0  0  0  0  0  0  0  0  0  0
   20.8516   71.2654   -3.9242 C   0  0  0  0  0  0  0  0  0  0  0  0
   21.0044   72.9025   -5.6765 O   0  0  0  0  0  0  0  0  0  0  0  0
   19.8705   74.8509   -3.6994 O   0  0  0  0  0  0  0  0  0  0  0  0
   17.6989   74.2180   -5.2226 O   0  0  0  0  0  0  0  0  0  0  0  0
   19.5754   73.4658   -3.8720 C   0  0  1  0  0  0  0  0  0  0  0  0
   18.7305   73.2586   -5.1116 C   0  0  2  0  0  0  0  0  0  0  0  0
   20.8692   72.7534   -4.2462 C   0  0  1  0  0  0  0  0  0  0  0  0
   19.7624   73.3790   -6.2201 C   0  0  2  0  0  0  0  0  0  0  0  0
   19.0593   75.3267   -3.4596 H   0  0  0  0  0  0  0  0  0  0  0  0
   17.0681   74.1003   -4.4953 H   0  0  0  0  0  0  0  0  0  0  0  0
   18.0508   74.2384   -8.2960 O   0  0  0  0  0  0  0  0  0  0  0  0
   18.5350   70.2686  -10.5868 O   0  0  0  0  0  0  0  0  0  0  0  0
   19.4242   72.5904   -7.3712 N   0  0  0  0  0  0  0  0  0  0  0  0
   18.2935   72.2611   -9.4351 N   0  0  0  0  0  0  0  0  0  0  0  0
   18.5547   73.1149   -8.3558 C   0  0  0  0  0  0  0  0  0  0  0  0
   19.9530   71.3124   -7.5154 C   0  0  0  0  0  0  0  0  0  0  0  0
   19.6929   70.5103   -8.5500 C   0  0  0  0  0  0  0  0  0  0  0  0
   18.7937   70.9823   -9.6227 C   0  0  0  0  0  0  0  0  0  0  0  0
   17.6900   72.6051  -10.1331 H   0  0  0  0  0  0  0  0  0  0  0  0
   20.9839   71.8717   -0.5851 O   0  0  0  0  0  0  0  0  0  0  0  0
   19.9419   72.8940    0.1093 P   0  0  2  0  0  0  0  0  0  0  0  0
   19.2413   71.9896    1.2533 O   0  0  0  0  0  0  0  0  0  0  0  0
   18.9799   73.5364   -0.8477 O   0  0  0  0  0  0  0  0  0  0  0  0
   20.8703   73.9335    0.9232 O   0  0  0  0  0  0  0  0  0  0  0  0
   23.0853   74.6497    0.4787 O   0  0  0  0  0  0  0  0  0  0  0  0
   23.2196   74.6120    4.6056 O   0  0  0  0  0  0  0  0  0  0  0  0
   23.1620   77.1223    3.2117 O   0  0  0  0  0  0  0  0  0  0  0  0
   21.7710   72.5445    3.1891 O   0  0  0  0  0  0  0  0  0  0  0  0
   22.6138   74.7968    3.3233 C   0  0  1  0  0  0  0  0  0  0  0  0
   23.4010   75.8720    2.5715 C   0  0  1  0  0  0  0  0  0  0  0  0
   22.6469   73.4739    2.5603 C   0  0  2  0  0  0  0  0  0  0  0  0
   22.9802   75.9374    1.0972 C   0  0  1  0  0  0  0  0  0  0  0  0
   22.2586   73.6588    1.0923 C   0  0  1  0  0  0  0  0  0  0  0  0
   23.2014   75.4482    5.0954 H   0  0  0  0  0  0  0  0  0  0  0  0
   23.4315   77.0674    4.1420 H   0  0  0  0  0  0  0  0  0  0  0  0
   22.0275   72.4360    4.1177 H   0  0  0  0  0  0  0  0  0  0  0  0
   23.4896   78.2206    0.6107 O   0  0  0  0  0  0  0  0  0  0  0  0
   23.8604   76.8917    0.2930 C   0  0  0  0  0  0  0  0  0  0  0  0
   24.0418   78.8390    0.1064 H   0  0  0  0  0  0  0  0  0  0  0  0
 25 28  1  0
 25 24  1  0
 25 26  1  1
 25 27  2  0
  1  4  1  0
  1 24  1  0
  1  2  1  6
  1  3  2  0
  6 11  1  0
  6 12  1  0
 29 36  1  0
 29 37  1  0
  9  7  1  6
  7 13  1  0
 10  8  1  6
  8 14  1  0
 37 28  1  1
  4  5  1  0
 33 30  1  1
 30 38  1  0
 34 31  1  1
 31 39  1  0
 35 32  1  1
 32 40  1  0
 41 42  1  0
 41 43  1  0
 15 19  2  0
 16 22  2  0
 12 17  1  6
 17 19  1  0
 17 20  1  0
 18 19  1  0
 18 22  1  0
 18 23  1  0
  9 10  1  0
  9 11  1  0
 10 12  1  0
 11  5  1  6
 33 34  1  0
 33 35  1  0
 34 36  1  0
 35 37  1  0
 36 42  1  6
 20 21  2  0
 21 22  1  0
M  CHG  2   2  -1  26  -1
M  END
>  <COMPND>  (68) 
    8629 

>  <AUTHOR>  (68) 
    GENERATED BY OPEN BABEL 3.1.1

>  <MASTER>  (68) 
        0    0    0    0    0    0    0    0   58    0   58    0

>  <minimizedAffinity>  (68) 
-6.98939

>  <CNNscore>  (68) 
0.4454626739

>  <CNNaffinity>  (68) 
4.2858777046

>  <CNN_VS>  (68) 
1.9091985226

>  <CNNaffinity_variance>  (68) 
0.0657905117

$$$$
69
     RDKit          3D

 43 45  0  0  0  0  0  0  0  0999 V2000
   17.8163   75.4211   -4.8697 P   0  0  2  0  0  0  0  0  0  0  0  0
   16.3822   75.2865   -4.1331 O   0  0  0  0  0  0  0  0  0  0  0  0
   17.9408   76.5867   -5.8063 O   0  0  0  0  0  0  0  0  0  0  0  0
   18.0531   73.9622   -5.5282 O   0  0  0  0  0  0  0  0  0  0  0  0
   17.8157   73.8001   -6.9157 C   0  0  0  0  0  0  0  0  0  0  0  0
   19.3650   72.0121   -6.4953 O   0  0  0  0  0  0  0  0  0  0  0  0
   19.5963   71.7626   -9.4744 O   0  0  0  0  0  0  0  0  0  0  0  0
   17.9058   69.7201   -8.8363 O   0  0  0  0  0  0  0  0  0  0  0  0
   18.4543   72.0837   -8.6819 C   0  0  1  0  0  0  0  0  0  0  0  0
   17.9349   70.8453   -7.9819 C   0  0  2  0  0  0  0  0  0  0  0  0
   18.9214   72.9389   -7.5106 C   0  0  1  0  0  0  0  0  0  0  0  0
   18.9270   70.6882   -6.8420 C   0  0  2  0  0  0  0  0  0  0  0  0
   19.3229   71.2170  -10.2290 H   0  0  0  0  0  0  0  0  0  0  0  0
   17.2601   69.8685   -9.5447 H   0  0  0  0  0  0  0  0  0  0  0  0
   20.3993   69.5056   -4.7416 O   0  0  0  0  0  0  0  0  0  0  0  0
   16.5658   68.3590   -2.4547 O   0  0  0  0  0  0  0  0  0  0  0  0
   18.3392   70.0736   -5.6852 N   0  0  0  0  0  0  0  0  0  0  0  0
   18.4893   68.9358   -3.6045 N   0  0  0  0  0  0  0  0  0  0  0  0
   19.1677   69.5078   -4.6883 C   0  0  0  0  0  0  0  0  0  0  0  0
   16.9559   70.0366   -5.5477 C   0  0  0  0  0  0  0  0  0  0  0  0
   16.3244   69.4862   -4.5086 C   0  0  0  0  0  0  0  0  0  0  0  0
   17.1168   68.8731   -3.4231 C   0  0  0  0  0  0  0  0  0  0  0  0
   19.0460   68.5351   -2.8979 H   0  0  0  0  0  0  0  0  0  0  0  0
   18.8592   75.4359   -3.6348 O   0  0  0  0  0  0  0  0  0  0  0  0
   20.4755   75.4384   -3.6103 P   0  0  2  0  0  0  0  0  0  0  0  0
   20.8311   76.7395   -2.7169 O   0  0  0  0  0  0  0  0  0  0  0  0
   21.1115   75.4283   -4.9702 O   0  0  0  0  0  0  0  0  0  0  0  0
   20.8718   74.1825   -2.6772 O   0  0  0  0  0  0  0  0  0  0  0  0
   21.7629   72.1543   -3.5191 O   0  0  0  0  0  0  0  0  0  0  0  0
   19.9951   70.7187   -0.0746 O   0  0  0  0  0  0  0  0  0  0  0  0
   22.8567   70.9098   -0.2261 O   0  0  0  0  0  0  0  0  0  0  0  0
   18.6808   72.7842   -1.6192 O   0  0  0  0  0  0  0  0  0  0  0  0
   20.6875   71.6739   -0.8831 C   0  0  1  0  0  0  0  0  0  0  0  0
   21.9982   71.0418   -1.3557 C   0  0  1  0  0  0  0  0  0  0  0  0
   19.8098   72.0474   -2.0763 C   0  0  2  0  0  0  0  0  0  0  0  0
   22.6677   71.8988   -2.4385 C   0  0  1  0  0  0  0  0  0  0  0  0
   20.5857   72.8572   -3.1166 C   0  0  1  0  0  0  0  0  0  0  0  0
   20.5468   70.4777    0.6851 H   0  0  0  0  0  0  0  0  0  0  0  0
   22.4219   70.3670    0.4503 H   0  0  0  0  0  0  0  0  0  0  0  0
   18.1979   72.2607   -0.9615 H   0  0  0  0  0  0  0  0  0  0  0  0
   23.7080   69.8097   -2.9508 O   0  0  0  0  0  0  0  0  0  0  0  0
   23.8931   71.2107   -3.0359 C   0  0  0  0  0  0  0  0  0  0  0  0
   24.4801   69.3586   -3.3277 H   0  0  0  0  0  0  0  0  0  0  0  0
 25 28  1  0
 25 24  1  0
 25 26  1  1
 25 27  2  0
  1  4  1  0
  1 24  1  0
  1  2  1  1
  1  3  2  0
  6 11  1  0
  6 12  1  0
 29 36  1  0
 29 37  1  0
  9  7  1  6
  7 13  1  0
 10  8  1  6
  8 14  1  0
 37 28  1  1
  4  5  1  0
 33 30  1  1
 30 38  1  0
 34 31  1  1
 31 39  1  0
 35 32  1  1
 32 40  1  0
 41 42  1  0
 41 43  1  0
 15 19  2  0
 16 22  2  0
 12 17  1  1
 17 19  1  0
 17 20  1  0
 18 19  1  0
 18 22  1  0
 18 23  1  0
  9 10  1  0
  9 11  1  0
 10 12  1  0
 11  5  1  1
 33 34  1  0
 33 35  1  0
 34 36  1  0
 35 37  1  0
 36 42  1  6
 20 21  2  0
 21 22  1  0
M  CHG  2   2  -1  26  -1
M  END
>  <COMPND>  (69) 
    8629 

>  <AUTHOR>  (69) 
    GENERATED BY OPEN BABEL 3.1.1

>  <MASTER>  (69) 
        0    0    0    0    0    0    0    0   58    0   58    0

>  <minimizedAffinity>  (69) 
-6.82193

>  <CNNscore>  (69) 
0.4208384752

>  <CNNaffinity>  (69) 
4.1395044327

>  <CNN_VS>  (69) 
1.7420626879

>  <CNNaffinity_variance>  (69) 
0.7256366611

$$$$
70
     RDKit          3D

 43 45  0  0  0  0  0  0  0  0999 V2000
   20.5665   75.1470   -5.0320 P   0  0  2  0  0  0  0  0  0  0  0  0
   19.5181   74.4603   -4.0089 O   0  0  0  0  0  0  0  0  0  0  0  0
   20.6110   76.6460   -4.9826 O   0  0  0  0  0  0  0  0  0  0  0  0
   20.1881   74.5021   -6.4669 O   0  0  0  0  0  0  0  0  0  0  0  0
   18.9194   73.8897   -6.6194 C   0  0  0  0  0  0  0  0  0  0  0  0
   19.2462   71.5798   -7.1949 O   0  0  0  0  0  0  0  0  0  0  0  0
   17.9817   72.2512   -9.8295 O   0  0  0  0  0  0  0  0  0  0  0  0
   15.9362   71.0610   -8.4746 O   0  0  0  0  0  0  0  0  0  0  0  0
   17.6796   72.7548   -8.5293 C   0  0  1  0  0  0  0  0  0  0  0  0
   16.9389   71.7107   -7.7201 C   0  0  2  0  0  0  0  0  0  0  0  0
   18.9884   72.8837   -7.7602 C   0  0  1  0  0  0  0  0  0  0  0  0
   18.0625   70.7734   -7.3112 C   0  0  2  0  0  0  0  0  0  0  0  0
   17.1611   72.1606  -10.3397 H   0  0  0  0  0  0  0  0  0  0  0  0
   15.2445   71.6987   -8.7103 H   0  0  0  0  0  0  0  0  0  0  0  0
   20.0753   69.9065   -5.5294 O   0  0  0  0  0  0  0  0  0  0  0  0
   16.9754   68.3230   -2.5089 O   0  0  0  0  0  0  0  0  0  0  0  0
   17.8097   70.1319   -6.0519 N   0  0  0  0  0  0  0  0  0  0  0  0
   18.5302   69.1189   -4.0268 N   0  0  0  0  0  0  0  0  0  0  0  0
   18.8914   69.7345   -5.2320 C   0  0  0  0  0  0  0  0  0  0  0  0
   16.5009   69.9030   -5.6412 C   0  0  0  0  0  0  0  0  0  0  0  0
   16.1732   69.3135   -4.4895 C   0  0  0  0  0  0  0  0  0  0  0  0
   17.2442   68.8681   -3.5749 C   0  0  0  0  0  0  0  0  0  0  0  0
   19.2672   68.8333   -3.4395 H   0  0  0  0  0  0  0  0  0  0  0  0
   21.9627   74.4201   -4.6639 O   0  0  0  0  0  0  0  0  0  0  0  0
   22.4698   72.9060   -4.9155 P   0  0  2  0  0  0  0  0  0  0  0  0
   24.0171   72.9500   -4.4451 O   0  0  0  0  0  0  0  0  0  0  0  0
   22.2628   72.4129   -6.3183 O   0  0  0  0  0  0  0  0  0  0  0  0
   21.7239   72.0317   -3.7823 O   0  0  0  0  0  0  0  0  0  0  0  0
   22.6739   72.4114   -1.6446 O   0  0  0  0  0  0  0  0  0  0  0  0
   20.1977   69.2410   -0.7126 O   0  0  0  0  0  0  0  0  0  0  0  0
   19.5208   71.8820    0.1903 O   0  0  0  0  0  0  0  0  0  0  0  0
   21.6029   69.2804   -3.2431 O   0  0  0  0  0  0  0  0  0  0  0  0
   20.5810   70.4382   -1.3947 C   0  0  1  0  0  0  0  0  0  0  0  0
   20.7927   71.5375   -0.3519 C   0  0  1  0  0  0  0  0  0  0  0  0
   21.8703   70.1789   -2.1719 C   0  0  2  0  0  0  0  0  0  0  0  0
   21.4598   72.7711   -0.9750 C   0  0  1  0  0  0  0  0  0  0  0  0
   22.4776   71.4768   -2.7075 C   0  0  1  0  0  0  0  0  0  0  0  0
   19.3795   69.3987   -0.2175 H   0  0  0  0  0  0  0  0  0  0  0  0
   19.1101   71.0942    0.5801 H   0  0  0  0  0  0  0  0  0  0  0  0
   21.2190   68.4627   -2.8910 H   0  0  0  0  0  0  0  0  0  0  0  0
   22.0413   73.1573    1.3101 O   0  0  0  0  0  0  0  0  0  0  0  0
   21.8234   73.8171    0.0766 C   0  0  0  0  0  0  0  0  0  0  0  0
   22.2739   73.8107    1.9889 H   0  0  0  0  0  0  0  0  0  0  0  0
 25 28  1  0
 25 24  1  0
 25 26  1  1
 25 27  2  0
  1  4  1  0
  1 24  1  0
  1  2  1  1
  1  3  2  0
  6 11  1  0
  6 12  1  0
 29 36  1  0
 29 37  1  0
  9  7  1  6
  7 13  1  0
 10  8  1  6
  8 14  1  0
 37 28  1  6
  4  5  1  0
 33 30  1  1
 30 38  1  0
 34 31  1  6
 31 39  1  0
 35 32  1  6
 32 40  1  0
 41 42  1  0
 41 43  1  0
 15 19  2  0
 16 22  2  0
 12 17  1  1
 17 19  1  0
 17 20  1  0
 18 19  1  0
 18 22  1  0
 18 23  1  0
  9 10  1  0
  9 11  1  0
 10 12  1  0
 11  5  1  1
 33 34  1  0
 33 35  1  0
 34 36  1  0
 35 37  1  0
 36 42  1  1
 20 21  2  0
 21 22  1  0
M  CHG  2   2  -1  26  -1
M  END
>  <COMPND>  (70) 
    8629 

>  <AUTHOR>  (70) 
    GENERATED BY OPEN BABEL 3.1.1

>  <MASTER>  (70) 
        0    0    0    0    0    0    0    0   58    0   58    0

>  <minimizedAffinity>  (70) 
-8.03114

>  <CNNscore>  (70) 
0.4200366437

>  <CNNaffinity>  (70) 
4.1421337128

>  <CNN_VS>  (70) 
1.7398478985

>  <CNNaffinity_variance>  (70) 
0.7014900446

$$$$
71
     RDKit          3D

 43 45  0  0  0  0  0  0  0  0999 V2000
   19.5037   69.4971   -2.9988 P   0  0  2  0  0  0  0  0  0  0  0  0
   19.4547   69.1208   -1.4261 O   0  0  0  0  0  0  0  0  0  0  0  0
   18.9753   68.4377   -3.9207 O   0  0  0  0  0  0  0  0  0  0  0  0
   21.0405   69.9398   -3.2446 O   0  0  0  0  0  0  0  0  0  0  0  0
   21.3639   71.3182   -3.1904 C   0  0  0  0  0  0  0  0  0  0  0  0
   22.9680   72.5635   -1.9058 O   0  0  0  0  0  0  0  0  0  0  0  0
   24.8277   70.2510   -2.3349 O   0  0  0  0  0  0  0  0  0  0  0  0
   23.9314   69.8294    0.2059 O   0  0  0  0  0  0  0  0  0  0  0  0
   23.4154   70.2475   -2.1330 C   0  0  1  0  0  0  0  0  0  0  0  0
   23.0910   70.5375   -0.6824 C   0  0  2  0  0  0  0  0  0  0  0  0
   22.8376   71.4682   -2.8383 C   0  0  1  0  0  0  0  0  0  0  0  0
   23.2962   72.0410   -0.6081 C   0  0  2  0  0  0  0  0  0  0  0  0
   25.2191   69.4802   -1.8937 H   0  0  0  0  0  0  0  0  0  0  0  0
   23.7632   68.8780    0.1211 H   0  0  0  0  0  0  0  0  0  0  0  0
   20.8859   70.9266    0.3545 O   0  0  0  0  0  0  0  0  0  0  0  0
   20.1315   74.5115    3.1510 O   0  0  0  0  0  0  0  0  0  0  0  0
   22.4502   72.6615    0.3720 N   0  0  0  0  0  0  0  0  0  0  0  0
   20.5123   72.7124    1.7463 N   0  0  0  0  0  0  0  0  0  0  0  0
   21.2606   72.0186    0.7868 C   0  0  0  0  0  0  0  0  0  0  0  0
   22.8030   73.8937    0.9116 C   0  0  0  0  0  0  0  0  0  0  0  0
   22.0778   74.5427    1.8249 C   0  0  0  0  0  0  0  0  0  0  0  0
   20.8204   73.9396    2.3119 C   0  0  0  0  0  0  0  0  0  0  0  0
   19.6793   72.2839    2.0500 H   0  0  0  0  0  0  0  0  0  0  0  0
   18.7066   70.9020   -3.0614 O   0  0  0  0  0  0  0  0  0  0  0  0
   17.2663   71.2781   -3.6917 P   0  0  2  0  0  0  0  0  0  0  0  0
   16.9579   72.7384   -3.0670 O   0  0  0  0  0  0  0  0  0  0  0  0
   16.1966   70.2564   -3.4353 O   0  0  0  0  0  0  0  0  0  0  0  0
   17.5641   71.5574   -5.2532 O   0  0  0  0  0  0  0  0  0  0  0  0
   19.0983   70.6926   -6.8391 O   0  0  0  0  0  0  0  0  0  0  0  0
   19.4176   74.7107   -7.7353 O   0  0  0  0  0  0  0  0  0  0  0  0
   18.0460   72.9578   -9.5502 O   0  0  0  0  0  0  0  0  0  0  0  0
   19.1404   73.8632   -4.9813 O   0  0  0  0  0  0  0  0  0  0  0  0
   18.7443   73.5153   -7.3315 C   0  0  1  0  0  0  0  0  0  0  0  0
   18.8513   72.4973   -8.4686 C   0  0  1  0  0  0  0  0  0  0  0  0
   19.4026   72.9758   -6.0631 C   0  0  2  0  0  0  0  0  0  0  0  0
   18.3891   71.1068   -8.0126 C   0  0  1  0  0  0  0  0  0  0  0  0
   18.9088   71.5678   -5.7256 C   0  0  1  0  0  0  0  0  0  0  0  0
   19.0042   75.0588   -8.5399 H   0  0  0  0  0  0  0  0  0  0  0  0
   18.3479   73.8368   -9.8283 H   0  0  0  0  0  0  0  0  0  0  0  0
   19.4578   74.7509   -5.2072 H   0  0  0  0  0  0  0  0  0  0  0  0
   17.6115   70.1400  -10.0545 O   0  0  0  0  0  0  0  0  0  0  0  0
   18.6347   70.0436   -9.0808 C   0  0  0  0  0  0  0  0  0  0  0  0
   17.7551   69.4694  -10.7411 H   0  0  0  0  0  0  0  0  0  0  0  0
 25 28  1  0
 25 24  1  0
 25 26  1  1
 25 27  2  0
  1  4  1  0
  1 24  1  0
  1  2  1  1
  1  3  2  0
  6 11  1  0
  6 12  1  0
 29 36  1  0
 29 37  1  0
  9  7  1  1
  7 13  1  0
 10  8  1  1
  8 14  1  0
 37 28  1  6
  4  5  1  0
 33 30  1  6
 30 38  1  0
 34 31  1  6
 31 39  1  0
 35 32  1  1
 32 40  1  0
 41 42  1  0
 41 43  1  0
 15 19  2  0
 16 22  2  0
 12 17  1  1
 17 19  1  0
 17 20  1  0
 18 19  1  0
 18 22  1  0
 18 23  1  0
  9 10  1  0
  9 11  1  0
 10 12  1  0
 11  5  1  1
 33 34  1  0
 33 35  1  0
 34 36  1  0
 35 37  1  0
 36 42  1  6
 20 21  2  0
 21 22  1  0
M  CHG  2   2  -1  26  -1
M  END
>  <COMPND>  (71) 
    8629 

>  <AUTHOR>  (71) 
    GENERATED BY OPEN BABEL 3.1.1

>  <MASTER>  (71) 
        0    0    0    0    0    0    0    0   58    0   58    0

>  <minimizedAffinity>  (71) 
-8.34012

>  <CNNscore>  (71) 
0.4200268984

>  <CNNaffinity>  (71) 
4.1671357155

>  <CNN_VS>  (71) 
1.7503091097

>  <CNNaffinity_variance>  (71) 
0.3358661532

$$$$
72
     RDKit          3D

 43 45  0  0  0  0  0  0  0  0999 V2000
   19.4617   70.0410   -2.2476 P   0  0  2  0  0  0  0  0  0  0  0  0
   19.9414   69.3692   -0.8562 O   0  0  0  0  0  0  0  0  0  0  0  0
   20.5639   70.3365   -3.2219 O   0  0  0  0  0  0  0  0  0  0  0  0
   18.5773   71.3128   -1.7803 O   0  0  0  0  0  0  0  0  0  0  0  0
   18.8352   72.5717   -2.3774 C   0  0  0  0  0  0  0  0  0  0  0  0
   20.0062   72.9311   -0.3102 O   0  0  0  0  0  0  0  0  0  0  0  0
   19.7389   75.8618   -0.8849 O   0  0  0  0  0  0  0  0  0  0  0  0
   22.3124   75.3436   -1.6232 O   0  0  0  0  0  0  0  0  0  0  0  0
   19.9531   74.7806   -1.7908 C   0  0  1  0  0  0  0  0  0  0  0  0
   21.3801   74.2838   -1.6884 C   0  0  2  0  0  0  0  0  0  0  0  0
   19.1616   73.5810   -1.2851 C   0  0  1  0  0  0  0  0  0  0  0  0
   21.3372   73.4635   -0.4104 C   0  0  2  0  0  0  0  0  0  0  0  0
   20.2343   76.6397   -1.1873 H   0  0  0  0  0  0  0  0  0  0  0  0
   22.3023   75.8352   -2.4593 H   0  0  0  0  0  0  0  0  0  0  0  0
   22.1287   72.0063    1.8761 O   0  0  0  0  0  0  0  0  0  0  0  0
   24.9408   69.3124   -0.5889 O   0  0  0  0  0  0  0  0  0  0  0  0
   22.2745   72.3760   -0.4259 N   0  0  0  0  0  0  0  0  0  0  0  0
   23.5281   70.6660    0.6469 N   0  0  0  0  0  0  0  0  0  0  0  0
   22.6047   71.7110    0.7780 C   0  0  0  0  0  0  0  0  0  0  0  0
   22.8553   71.9788   -1.6253 C   0  0  0  0  0  0  0  0  0  0  0  0
   23.7352   70.9811   -1.7332 C   0  0  0  0  0  0  0  0  0  0  0  0
   24.1340   70.2347   -0.5225 C   0  0  0  0  0  0  0  0  0  0  0  0
   23.7736   70.1885    1.4724 H   0  0  0  0  0  0  0  0  0  0  0  0
   18.3471   69.0022   -2.7875 O   0  0  0  0  0  0  0  0  0  0  0  0
   17.3584   69.0748   -4.0643 P   0  0  2  0  0  0  0  0  0  0  0  0
   16.2716   70.1914   -3.6290 O   0  0  0  0  0  0  0  0  0  0  0  0
   16.7647   67.7535   -4.4588 O   0  0  0  0  0  0  0  0  0  0  0  0
   18.2337   69.7861   -5.2188 O   0  0  0  0  0  0  0  0  0  0  0  0
   18.9903   71.9942   -5.6293 O   0  0  0  0  0  0  0  0  0  0  0  0
   17.6955   71.0236   -9.4282 O   0  0  0  0  0  0  0  0  0  0  0  0
   20.5114   71.1956   -8.8908 O   0  0  0  0  0  0  0  0  0  0  0  0
   16.1972   70.1276   -7.1191 O   0  0  0  0  0  0  0  0  0  0  0  0
   18.2780   70.7726   -8.1465 C   0  0  1  0  0  0  0  0  0  0  0  0
   19.5090   71.6686   -7.9954 C   0  0  1  0  0  0  0  0  0  0  0  0
   17.2495   71.0845   -7.0610 C   0  0  2  0  0  0  0  0  0  0  0  0
   20.0313   71.6537   -6.5525 C   0  0  1  0  0  0  0  0  0  0  0  0
   17.8827   71.0923   -5.6684 C   0  0  1  0  0  0  0  0  0  0  0  0
   18.3432   70.8270  -10.1220 H   0  0  0  0  0  0  0  0  0  0  0  0
   20.1687   71.2096   -9.7983 H   0  0  0  0  0  0  0  0  0  0  0  0
   15.8044   70.1326   -8.0055 H   0  0  0  0  0  0  0  0  0  0  0  0
   22.2638   72.2703   -7.1394 O   0  0  0  0  0  0  0  0  0  0  0  0
   21.1605   72.6602   -6.3426 C   0  0  0  0  0  0  0  0  0  0  0  0
   22.9901   72.9020   -7.0162 H   0  0  0  0  0  0  0  0  0  0  0  0
 25 28  1  0
 25 24  1  0
 25 26  1  1
 25 27  2  0
  1  4  1  0
  1 24  1  0
  1  2  1  1
  1  3  2  0
  6 11  1  0
  6 12  1  0
 29 36  1  0
 29 37  1  0
  9  7  1  1
  7 13  1  0
 10  8  1  1
  8 14  1  0
 37 28  1  6
  4  5  1  0
 33 30  1  6
 30 38  1  0
 34 31  1  6
 31 39  1  0
 35 32  1  1
 32 40  1  0
 41 42  1  0
 41 43  1  0
 15 19  2  0
 16 22  2  0
 12 17  1  6
 17 19  1  0
 17 20  1  0
 18 19  1  0
 18 22  1  0
 18 23  1  0
  9 10  1  0
  9 11  1  0
 10 12  1  0
 11  5  1  6
 33 34  1  0
 33 35  1  0
 34 36  1  0
 35 37  1  0
 36 42  1  6
 20 21  2  0
 21 22  1  0
M  CHG  2   2  -1  26  -1
M  END
>  <COMPND>  (72) 
    8629 

>  <AUTHOR>  (72) 
    GENERATED BY OPEN BABEL 3.1.1

>  <MASTER>  (72) 
        0    0    0    0    0    0    0    0   58    0   58    0

>  <minimizedAffinity>  (72) 
-8.21468

>  <CNNscore>  (72) 
0.4160470963

>  <CNNaffinity>  (72) 
4.2597804070

>  <CNN_VS>  (72) 
1.7722692490

>  <CNNaffinity_variance>  (72) 
0.3557170928

$$$$
73
     RDKit          3D

 43 45  0  0  0  0  0  0  0  0999 V2000
   18.0296   73.9137   -0.7102 P   0  0  2  0  0  0  0  0  0  0  0  0
   16.8640   74.2781    0.3510 O   0  0  0  0  0  0  0  0  0  0  0  0
   18.9152   75.0613   -1.0977 O   0  0  0  0  0  0  0  0  0  0  0  0
   17.2383   73.1955   -1.9250 O   0  0  0  0  0  0  0  0  0  0  0  0
   17.9938   72.5885   -2.9587 C   0  0  0  0  0  0  0  0  0  0  0  0
   17.3782   70.5640   -4.0973 O   0  0  0  0  0  0  0  0  0  0  0  0
   18.9402   69.1214   -1.9832 O   0  0  0  0  0  0  0  0  0  0  0  0
   20.6693   69.1388   -4.0918 O   0  0  0  0  0  0  0  0  0  0  0  0
   19.2054   70.3803   -2.5996 C   0  0  1  0  0  0  0  0  0  0  0  0
   19.7149   70.1777   -4.0113 C   0  0  2  0  0  0  0  0  0  0  0  0
   17.8711   71.0756   -2.8397 C   0  0  1  0  0  0  0  0  0  0  0  0
   18.4355   69.8559   -4.7648 C   0  0  2  0  0  0  0  0  0  0  0  0
   19.7776   68.6588   -1.8196 H   0  0  0  0  0  0  0  0  0  0  0  0
   21.4646   69.3911   -3.5972 H   0  0  0  0  0  0  0  0  0  0  0  0
   16.2732   69.6717   -6.5728 O   0  0  0  0  0  0  0  0  0  0  0  0
   18.7462   71.5062  -10.0021 O   0  0  0  0  0  0  0  0  0  0  0  0
   18.4865   70.2783   -6.1360 N   0  0  0  0  0  0  0  0  0  0  0  0
   17.5063   70.5854   -8.2788 N   0  0  0  0  0  0  0  0  0  0  0  0
   17.3451   70.1415   -6.9601 C   0  0  0  0  0  0  0  0  0  0  0  0
   19.6586   70.8216   -6.6507 C   0  0  0  0  0  0  0  0  0  0  0  0
   19.7964   71.2390   -7.9108 C   0  0  0  0  0  0  0  0  0  0  0  0
   18.6511   71.1312   -8.8375 C   0  0  0  0  0  0  0  0  0  0  0  0
   16.7245   70.4996   -8.8714 H   0  0  0  0  0  0  0  0  0  0  0  0
   18.7973   72.6822    0.0018 O   0  0  0  0  0  0  0  0  0  0  0  0
   20.3718   72.4142    0.2508 P   0  0  2  0  0  0  0  0  0  0  0  0
   20.4606   70.8028    0.3644 O   0  0  0  0  0  0  0  0  0  0  0  0
   20.9427   73.1504    1.4281 O   0  0  0  0  0  0  0  0  0  0  0  0
   21.0736   72.7626   -1.1603 O   0  0  0  0  0  0  0  0  0  0  0  0
   23.3009   72.2154   -0.5635 O   0  0  0  0  0  0  0  0  0  0  0  0
   23.7735   72.5364   -4.6531 O   0  0  0  0  0  0  0  0  0  0  0  0
   23.8338   69.9444   -3.4179 O   0  0  0  0  0  0  0  0  0  0  0  0
   22.0264   74.3713   -3.2530 O   0  0  0  0  0  0  0  0  0  0  0  0
   23.0831   72.2152   -3.4425 C   0  0  1  0  0  0  0  0  0  0  0  0
   23.9016   71.1659   -2.6876 C   0  0  1  0  0  0  0  0  0  0  0  0
   22.9296   73.4828   -2.6040 C   0  0  2  0  0  0  0  0  0  0  0  0
   23.3677   70.9669   -1.2626 C   0  0  1  0  0  0  0  0  0  0  0  0
   22.4395   73.1684   -1.1894 C   0  0  1  0  0  0  0  0  0  0  0  0
   23.8738   71.7359   -5.1904 H   0  0  0  0  0  0  0  0  0  0  0  0
   24.1733   70.0838   -4.3159 H   0  0  0  0  0  0  0  0  0  0  0  0
   22.3480   74.5628   -4.1473 H   0  0  0  0  0  0  0  0  0  0  0  0
   24.0062   70.2729    0.9327 O   0  0  0  0  0  0  0  0  0  0  0  0
   24.2629   70.0426   -0.4403 C   0  0  0  0  0  0  0  0  0  0  0  0
   24.5688   69.6912    1.4683 H   0  0  0  0  0  0  0  0  0  0  0  0
 25 28  1  0
 25 24  1  0
 25 26  1  1
 25 27  2  0
  1  4  1  0
  1 24  1  0
  1  2  1  1
  1  3  2  0
  6 11  1  0
  6 12  1  0
 29 36  1  0
 29 37  1  0
  9  7  1  6
  7 13  1  0
 10  8  1  1
  8 14  1  0
 37 28  1  6
  4  5  1  0
 33 30  1  6
 30 38  1  0
 34 31  1  6
 31 39  1  0
 35 32  1  6
 32 40  1  0
 41 42  1  0
 41 43  1  0
 15 19  2  0
 16 22  2  0
 12 17  1  6
 17 19  1  0
 17 20  1  0
 18 19  1  0
 18 22  1  0
 18 23  1  0
  9 10  1  0
  9 11  1  0
 10 12  1  0
 11  5  1  6
 33 34  1  0
 33 35  1  0
 34 36  1  0
 35 37  1  0
 36 42  1  1
 20 21  2  0
 21 22  1  0
M  CHG  2   2  -1  26  -1
M  END
>  <COMPND>  (73) 
    8629 

>  <AUTHOR>  (73) 
    GENERATED BY OPEN BABEL 3.1.1

>  <MASTER>  (73) 
        0    0    0    0    0    0    0    0   58    0   58    0

>  <minimizedAffinity>  (73) 
-7.95557

>  <CNNscore>  (73) 
0.4153494835

>  <CNNaffinity>  (73) 
4.4208154678

>  <CNN_VS>  (73) 
1.8361834288

>  <CNNaffinity_variance>  (73) 
0.2500105202

$$$$
74
     RDKit          3D

 43 45  0  0  0  0  0  0  0  0999 V2000
   19.5735   69.7725   -2.0763 P   0  0  2  0  0  0  0  0  0  0  0  0
   18.7058   71.1367   -2.1357 O   0  0  0  0  0  0  0  0  0  0  0  0
   19.8918   69.2835   -0.6940 O   0  0  0  0  0  0  0  0  0  0  0  0
   20.8486   70.0817   -3.0232 O   0  0  0  0  0  0  0  0  0  0  0  0
   21.2544   71.4287   -3.1922 C   0  0  0  0  0  0  0  0  0  0  0  0
   22.9702   72.6466   -2.0317 O   0  0  0  0  0  0  0  0  0  0  0  0
   24.7203   70.2567   -2.4972 O   0  0  0  0  0  0  0  0  0  0  0  0
   23.9517   69.9339    0.0993 O   0  0  0  0  0  0  0  0  0  0  0  0
   23.3221   70.3106   -2.2187 C   0  0  1  0  0  0  0  0  0  0  0  0
   23.0890   70.6495   -0.7612 C   0  0  2  0  0  0  0  0  0  0  0  0
   22.7497   71.5332   -2.9251 C   0  0  1  0  0  0  0  0  0  0  0  0
   23.3511   72.1458   -0.7398 C   0  0  2  0  0  0  0  0  0  0  0  0
   25.1080   69.4836   -2.0568 H   0  0  0  0  0  0  0  0  0  0  0  0
   23.7455   68.9874    0.0501 H   0  0  0  0  0  0  0  0  0  0  0  0
   23.7263   74.8429    0.0102 O   0  0  0  0  0  0  0  0  0  0  0  0
   20.3474   74.6343    3.1376 O   0  0  0  0  0  0  0  0  0  0  0  0
   22.5832   72.8220    0.2674 N   0  0  0  0  0  0  0  0  0  0  0  0
   22.0434   74.7369    1.5667 N   0  0  0  0  0  0  0  0  0  0  0  0
   22.8521   74.1773    0.5692 C   0  0  0  0  0  0  0  0  0  0  0  0
   21.5760   72.1422    0.9437 C   0  0  0  0  0  0  0  0  0  0  0  0
   20.8146   72.6899    1.8932 C   0  0  0  0  0  0  0  0  0  0  0  0
   21.0309   74.1021    2.2685 C   0  0  0  0  0  0  0  0  0  0  0  0
   22.2130   75.6800    1.7940 H   0  0  0  0  0  0  0  0  0  0  0  0
   18.6990   68.7464   -2.9682 O   0  0  0  0  0  0  0  0  0  0  0  0
   17.5655   69.0144   -4.0891 P   0  0  2  0  0  0  0  0  0  0  0  0
   16.6361   70.1527   -3.4122 O   0  0  0  0  0  0  0  0  0  0  0  0
   16.8222   67.7830   -4.5192 O   0  0  0  0  0  0  0  0  0  0  0  0
   18.3418   69.7775   -5.2807 O   0  0  0  0  0  0  0  0  0  0  0  0
   19.0006   72.0223   -5.6597 O   0  0  0  0  0  0  0  0  0  0  0  0
   17.5628   71.1125   -9.4221 O   0  0  0  0  0  0  0  0  0  0  0  0
   20.3932   71.3714   -9.0102 O   0  0  0  0  0  0  0  0  0  0  0  0
   16.2073   70.0981   -7.0741 O   0  0  0  0  0  0  0  0  0  0  0  0
   18.2136   70.8468   -8.1766 C   0  0  1  0  0  0  0  0  0  0  0  0
   19.4182   71.7823   -8.0559 C   0  0  1  0  0  0  0  0  0  0  0  0
   17.2271   71.0905   -7.0360 C   0  0  2  0  0  0  0  0  0  0  0  0
   20.0081   71.7459   -6.6396 C   0  0  1  0  0  0  0  0  0  0  0  0
   17.9246   71.0822   -5.6746 C   0  0  1  0  0  0  0  0  0  0  0  0
   18.1836   70.9591  -10.1505 H   0  0  0  0  0  0  0  0  0  0  0  0
   20.0079   71.3985   -9.9001 H   0  0  0  0  0  0  0  0  0  0  0  0
   15.7732   70.1138   -7.9408 H   0  0  0  0  0  0  0  0  0  0  0  0
   20.7179   73.9792   -7.1061 O   0  0  0  0  0  0  0  0  0  0  0  0
   21.1101   72.7864   -6.4521 C   0  0  0  0  0  0  0  0  0  0  0  0
   21.4096   74.6506   -6.9949 H   0  0  0  0  0  0  0  0  0  0  0  0
 25 28  1  0
 25 24  1  0
 25 26  1  1
 25 27  2  0
  1  4  1  0
  1 24  1  0
  1  2  1  1
  1  3  2  0
  6 11  1  0
  6 12  1  0
 29 36  1  0
 29 37  1  0
  9  7  1  1
  7 13  1  0
 10  8  1  1
  8 14  1  0
 37 28  1  6
  4  5  1  0
 33 30  1  6
 30 38  1  0
 34 31  1  6
 31 39  1  0
 35 32  1  1
 32 40  1  0
 41 42  1  0
 41 43  1  0
 15 19  2  0
 16 22  2  0
 12 17  1  1
 17 19  1  0
 17 20  1  0
 18 19  1  0
 18 22  1  0
 18 23  1  0
  9 10  1  0
  9 11  1  0
 10 12  1  0
 11  5  1  1
 33 34  1  0
 33 35  1  0
 34 36  1  0
 35 37  1  0
 36 42  1  6
 20 21  2  0
 21 22  1  0
M  CHG  2   2  -1  26  -1
M  END
>  <COMPND>  (74) 
    8629 

>  <AUTHOR>  (74) 
    GENERATED BY OPEN BABEL 3.1.1

>  <MASTER>  (74) 
        0    0    0    0    0    0    0    0   58    0   58    0

>  <minimizedAffinity>  (74) 
-8.74730

>  <CNNscore>  (74) 
0.4136937261

>  <CNNaffinity>  (74) 
4.1235880852

>  <CNN_VS>  (74) 
1.7059025764

>  <CNNaffinity_variance>  (74) 
0.2833771110

$$$$
75
     RDKit          3D

 43 45  0  0  0  0  0  0  0  0999 V2000
   20.2873   70.6229   -1.3053 P   0  0  2  0  0  0  0  0  0  0  0  0
   20.0567   69.1576   -0.6594 O   0  0  0  0  0  0  0  0  0  0  0  0
   21.6977   70.9154   -1.7255 O   0  0  0  0  0  0  0  0  0  0  0  0
   19.6563   71.6336   -0.2106 O   0  0  0  0  0  0  0  0  0  0  0  0
   20.3000   72.8759    0.0127 C   0  0  0  0  0  0  0  0  0  0  0  0
   22.5495   73.4779    0.6053 O   0  0  0  0  0  0  0  0  0  0  0  0
   21.8957   72.4719    3.3533 O   0  0  0  0  0  0  0  0  0  0  0  0
   21.6749   75.1746    3.6417 O   0  0  0  0  0  0  0  0  0  0  0  0
   21.0625   73.1617    2.4231 C   0  0  1  0  0  0  0  0  0  0  0  0
   21.4449   74.6258    2.3600 C   0  0  2  0  0  0  0  0  0  0  0  0
   21.4215   72.6786    1.0235 C   0  0  1  0  0  0  0  0  0  0  0  0
   22.7012   74.5868    1.5066 C   0  0  2  0  0  0  0  0  0  0  0  0
   21.6846   72.7636    4.2545 H   0  0  0  0  0  0  0  0  0  0  0  0
   20.8463   75.1776    4.1457 H   0  0  0  0  0  0  0  0  0  0  0  0
   24.6240   76.5735    2.0843 O   0  0  0  0  0  0  0  0  0  0  0  0
   23.3000   79.1554   -1.4965 O   0  0  0  0  0  0  0  0  0  0  0  0
   22.8811   75.7883    0.7415 N   0  0  0  0  0  0  0  0  0  0  0  0
   23.9633   77.8574    0.3007 N   0  0  0  0  0  0  0  0  0  0  0  0
   23.8748   76.7222    1.1167 C   0  0  0  0  0  0  0  0  0  0  0  0
   22.0775   76.0307   -0.3672 C   0  0  0  0  0  0  0  0  0  0  0  0
   22.1737   77.1187   -1.1342 C   0  0  0  0  0  0  0  0  0  0  0  0
   23.1868   78.1440   -0.8108 C   0  0  0  0  0  0  0  0  0  0  0  0
   24.6483   78.5220    0.5431 H   0  0  0  0  0  0  0  0  0  0  0  0
   19.2052   70.6655   -2.5054 O   0  0  0  0  0  0  0  0  0  0  0  0
   18.7557   69.5353   -3.5701 P   0  0  2  0  0  0  0  0  0  0  0  0
   17.4054   68.9276   -2.9182 O   0  0  0  0  0  0  0  0  0  0  0  0
   19.8147   68.5131   -3.8663 O   0  0  0  0  0  0  0  0  0  0  0  0
   18.2488   70.3657   -4.8578 O   0  0  0  0  0  0  0  0  0  0  0  0
   19.2285   70.5640   -7.0066 O   0  0  0  0  0  0  0  0  0  0  0  0
   17.6935   74.3785   -6.6269 O   0  0  0  0  0  0  0  0  0  0  0  0
   16.4493   72.5225   -8.4311 O   0  0  0  0  0  0  0  0  0  0  0  0
   18.8554   73.0543   -4.3299 O   0  0  0  0  0  0  0  0  0  0  0  0
   17.7161   72.9595   -6.4499 C   0  0  1  0  0  0  0  0  0  0  0  0
   17.7236   72.3039   -7.8322 C   0  0  1  0  0  0  0  0  0  0  0  0
   18.9688   72.5742   -5.6652 C   0  0  2  0  0  0  0  0  0  0  0  0
   18.0156   70.8007   -7.7308 C   0  0  1  0  0  0  0  0  0  0  0  0
   19.1935   71.0610   -5.6674 C   0  0  1  0  0  0  0  0  0  0  0  0
   16.9003   74.6298   -7.1240 H   0  0  0  0  0  0  0  0  0  0  0  0
   16.2770   73.4754   -8.4888 H   0  0  0  0  0  0  0  0  0  0  0  0
   18.7137   74.0133   -4.3421 H   0  0  0  0  0  0  0  0  0  0  0  0
   18.3439   71.1840  -10.0662 O   0  0  0  0  0  0  0  0  0  0  0  0
   18.1838   70.1568   -9.1053 C   0  0  0  0  0  0  0  0  0  0  0  0
   18.4524   70.7889  -10.9459 H   0  0  0  0  0  0  0  0  0  0  0  0
 25 28  1  0
 25 24  1  0
 25 26  1  1
 25 27  2  0
  1  4  1  0
  1 24  1  0
  1  2  1  1
  1  3  2  0
  6 11  1  0
  6 12  1  0
 29 36  1  0
 29 37  1  0
  9  7  1  1
  7 13  1  0
 10  8  1  1
  8 14  1  0
 37 28  1  1
  4  5  1  0
 33 30  1  6
 30 38  1  0
 34 31  1  1
 31 39  1  0
 35 32  1  1
 32 40  1  0
 41 42  1  0
 41 43  1  0
 15 19  2  0
 16 22  2  0
 12 17  1  6
 17 19  1  0
 17 20  1  0
 18 19  1  0
 18 22  1  0
 18 23  1  0
  9 10  1  0
  9 11  1  0
 10 12  1  0
 11  5  1  6
 33 34  1  0
 33 35  1  0
 34 36  1  0
 35 37  1  0
 36 42  1  6
 20 21  2  0
 21 22  1  0
M  CHG  2   2  -1  26  -1
M  END
>  <COMPND>  (75) 
    8629 

>  <AUTHOR>  (75) 
    GENERATED BY OPEN BABEL 3.1.1

>  <MASTER>  (75) 
        0    0    0    0    0    0    0    0   58    0   58    0

>  <minimizedAffinity>  (75) 
-7.16103

>  <CNNscore>  (75) 
0.3985227048

>  <CNNaffinity>  (75) 
4.0432004929

>  <CNN_VS>  (75) 
1.6113071442

>  <CNNaffinity_variance>  (75) 
0.0771775693

$$$$
76
     RDKit          3D

 43 45  0  0  0  0  0  0  0  0999 V2000
   21.1249   75.2385   -2.3755 P   0  0  2  0  0  0  0  0  0  0  0  0
   22.4609   74.6600   -1.6698 O   0  0  0  0  0  0  0  0  0  0  0  0
   21.3594   76.3322   -3.3756 O   0  0  0  0  0  0  0  0  0  0  0  0
   20.1621   75.6182   -1.1319 O   0  0  0  0  0  0  0  0  0  0  0  0
   20.7113   75.6141    0.1743 C   0  0  0  0  0  0  0  0  0  0  0  0
   19.7973   73.3987    0.3488 O   0  0  0  0  0  0  0  0  0  0  0  0
   19.5779   73.9233    3.2928 O   0  0  0  0  0  0  0  0  0  0  0  0
   21.8297   72.3939    3.1278 O   0  0  0  0  0  0  0  0  0  0  0  0
   20.5859   74.3424    2.3744 C   0  0  1  0  0  0  0  0  0  0  0  0
   21.4782   73.1760    2.0046 C   0  0  2  0  0  0  0  0  0  0  0  0
   19.9088   74.6584    1.0466 C   0  0  1  0  0  0  0  0  0  0  0  0
   20.6118   72.4185    1.0128 C   0  0  2  0  0  0  0  0  0  0  0  0
   19.9864   73.7162    4.1486 H   0  0  0  0  0  0  0  0  0  0  0  0
   22.3803   72.9198    3.7286 H   0  0  0  0  0  0  0  0  0  0  0  0
   19.5325   70.6674   -0.9228 O   0  0  0  0  0  0  0  0  0  0  0  0
   23.6899   69.7769   -2.7016 O   0  0  0  0  0  0  0  0  0  0  0  0
   21.3892   71.7160    0.0312 N   0  0  0  0  0  0  0  0  0  0  0  0
   21.6034   70.2256   -1.8071 N   0  0  0  0  0  0  0  0  0  0  0  0
   20.7498   70.8594   -0.8951 C   0  0  0  0  0  0  0  0  0  0  0  0
   22.7696   71.8798   -0.0064 C   0  0  0  0  0  0  0  0  0  0  0  0
   23.5695   71.2671   -0.8816 C   0  0  0  0  0  0  0  0  0  0  0  0
   22.9811   70.3551   -1.8836 C   0  0  0  0  0  0  0  0  0  0  0  0
   21.1803   69.6238   -2.4617 H   0  0  0  0  0  0  0  0  0  0  0  0
   20.4297   73.9108   -2.9811 O   0  0  0  0  0  0  0  0  0  0  0  0
   20.6112   73.1746   -4.4087 P   0  0  2  0  0  0  0  0  0  0  0  0
   21.9643   72.3100   -4.2111 O   0  0  0  0  0  0  0  0  0  0  0  0
   20.6393   74.1088   -5.5837 O   0  0  0  0  0  0  0  0  0  0  0  0
   19.4291   72.0767   -4.4553 O   0  0  0  0  0  0  0  0  0  0  0  0
   19.1567   69.7624   -4.0235 O   0  0  0  0  0  0  0  0  0  0  0  0
   17.4075   69.9468   -7.7595 O   0  0  0  0  0  0  0  0  0  0  0  0
   15.7569   69.5849   -5.4373 O   0  0  0  0  0  0  0  0  0  0  0  0
   19.7621   71.5307   -7.1878 O   0  0  0  0  0  0  0  0  0  0  0  0
   17.7507   70.4259   -6.4563 C   0  0  1  0  0  0  0  0  0  0  0  0
   17.1759   69.4560   -5.4221 C   0  0  1  0  0  0  0  0  0  0  0  0
   19.2717   70.5005   -6.3365 C   0  0  2  0  0  0  0  0  0  0  0  0
   17.7244   69.7525   -4.0198 C   0  0  1  0  0  0  0  0  0  0  0  0
   19.7129   70.7504   -4.8932 C   0  0  1  0  0  0  0  0  0  0  0  0
   16.4430   69.8976   -7.8423 H   0  0  0  0  0  0  0  0  0  0  0  0
   15.4234   69.3956   -6.3284 H   0  0  0  0  0  0  0  0  0  0  0  0
   19.4763   71.3608   -8.0984 H   0  0  0  0  0  0  0  0  0  0  0  0
   16.7585   67.5905   -3.7005 O   0  0  0  0  0  0  0  0  0  0  0  0
   17.2882   68.7016   -3.0012 C   0  0  0  0  0  0  0  0  0  0  0  0
   16.4771   66.9134   -3.0649 H   0  0  0  0  0  0  0  0  0  0  0  0
 25 28  1  0
 25 24  1  0
 25 26  1  1
 25 27  2  0
  1  4  1  0
  1 24  1  0
  1  2  1  1
  1  3  2  0
  6 11  1  0
  6 12  1  0
 29 36  1  0
 29 37  1  0
  9  7  1  1
  7 13  1  0
 10  8  1  1
  8 14  1  0
 37 28  1  1
  4  5  1  0
 33 30  1  6
 30 38  1  0
 34 31  1  1
 31 39  1  0
 35 32  1  6
 32 40  1  0
 41 42  1  0
 41 43  1  0
 15 19  2  0
 16 22  2  0
 12 17  1  6
 17 19  1  0
 17 20  1  0
 18 19  1  0
 18 22  1  0
 18 23  1  0
  9 10  1  0
  9 11  1  0
 10 12  1  0
 11  5  1  6
 33 34  1  0
 33 35  1  0
 34 36  1  0
 35 37  1  0
 36 42  1  1
 20 21  2  0
 21 22  1  0
M  CHG  2   2  -1  26  -1
M  END
>  <COMPND>  (76) 
    8629 

>  <AUTHOR>  (76) 
    GENERATED BY OPEN BABEL 3.1.1

>  <MASTER>  (76) 
        0    0    0    0    0    0    0    0   58    0   58    0

>  <minimizedAffinity>  (76) 
-7.55475

>  <CNNscore>  (76) 
0.3896941245

>  <CNNaffinity>  (76) 
3.8911995888

>  <CNN_VS>  (76) 
1.5163775682

>  <CNNaffinity_variance>  (76) 
0.9905496836

$$$$
77
     RDKit          3D

 43 45  0  0  0  0  0  0  0  0999 V2000
   17.7483   75.6427   -5.5523 P   0  0  2  0  0  0  0  0  0  0  0  0
   16.7722   74.6971   -4.6746 O   0  0  0  0  0  0  0  0  0  0  0  0
   17.5167   77.1164   -5.3903 O   0  0  0  0  0  0  0  0  0  0  0  0
   17.5950   75.0686   -7.0572 O   0  0  0  0  0  0  0  0  0  0  0  0
   17.2748   73.6991   -7.2290 C   0  0  0  0  0  0  0  0  0  0  0  0
   19.0413   72.1623   -6.6890 O   0  0  0  0  0  0  0  0  0  0  0  0
   19.3701   71.7925   -9.6463 O   0  0  0  0  0  0  0  0  0  0  0  0
   17.9568   69.5751   -8.9235 O   0  0  0  0  0  0  0  0  0  0  0  0
   18.1780   71.9962   -8.8896 C   0  0  1  0  0  0  0  0  0  0  0  0
   17.8150   70.7365   -8.1312 C   0  0  2  0  0  0  0  0  0  0  0  0
   18.4994   72.9663   -7.7596 C   0  0  1  0  0  0  0  0  0  0  0  0
   18.7936   70.7750   -6.9697 C   0  0  2  0  0  0  0  0  0  0  0  0
   19.1896   71.1764  -10.3742 H   0  0  0  0  0  0  0  0  0  0  0  0
   17.3128   69.5975   -9.6485 H   0  0  0  0  0  0  0  0  0  0  0  0
   20.3793   69.6867   -4.9011 O   0  0  0  0  0  0  0  0  0  0  0  0
   16.6706   68.3888   -2.4922 O   0  0  0  0  0  0  0  0  0  0  0  0
   18.2686   70.1470   -5.7902 N   0  0  0  0  0  0  0  0  0  0  0  0
   18.5314   69.0415   -3.7032 N   0  0  0  0  0  0  0  0  0  0  0  0
   19.1509   69.6320   -4.8121 C   0  0  0  0  0  0  0  0  0  0  0  0
   16.8930   70.0470   -5.6122 C   0  0  0  0  0  0  0  0  0  0  0  0
   16.3181   69.4798   -4.5497 C   0  0  0  0  0  0  0  0  0  0  0  0
   17.1690   68.9169   -3.4815 C   0  0  0  0  0  0  0  0  0  0  0  0
   19.1262   68.6754   -3.0090 H   0  0  0  0  0  0  0  0  0  0  0  0
   19.2235   75.1422   -5.1209 O   0  0  0  0  0  0  0  0  0  0  0  0
   20.0683   75.3746   -3.7625 P   0  0  2  0  0  0  0  0  0  0  0  0
   18.9379   75.8198   -2.6941 O   0  0  0  0  0  0  0  0  0  0  0  0
   21.2044   76.3460   -3.9030 O   0  0  0  0  0  0  0  0  0  0  0  0
   20.5086   73.8933   -3.2967 O   0  0  0  0  0  0  0  0  0  0  0  0
   21.0275   72.8607   -1.2277 O   0  0  0  0  0  0  0  0  0  0  0  0
   24.1363   71.3761   -3.5041 O   0  0  0  0  0  0  0  0  0  0  0  0
   21.9890   69.6339   -2.7283 O   0  0  0  0  0  0  0  0  0  0  0  0
   23.2452   74.1043   -3.8812 O   0  0  0  0  0  0  0  0  0  0  0  0
   22.8001   71.8213   -3.2559 C   0  0  1  0  0  0  0  0  0  0  0  0
   22.1912   70.9298   -2.1717 C   0  0  1  0  0  0  0  0  0  0  0  0
   22.8364   73.2777   -2.7967 C   0  0  2  0  0  0  0  0  0  0  0  0
   20.8631   71.5057   -1.6623 C   0  0  1  0  0  0  0  0  0  0  0  0
   21.4777   73.7359   -2.2636 C   0  0  1  0  0  0  0  0  0  0  0  0
   24.1203   70.4521   -3.7965 H   0  0  0  0  0  0  0  0  0  0  0  0
   22.8351   69.2817   -3.0467 H   0  0  0  0  0  0  0  0  0  0  0  0
   24.1066   73.8042   -4.2094 H   0  0  0  0  0  0  0  0  0  0  0  0
   19.9270   69.4350   -0.9241 O   0  0  0  0  0  0  0  0  0  0  0  0
   20.3173   70.7189   -0.4727 C   0  0  0  0  0  0  0  0  0  0  0  0
   19.5779   68.9228   -0.1775 H   0  0  0  0  0  0  0  0  0  0  0  0
 25 28  1  0
 25 24  1  0
 25 26  1  1
 25 27  2  0
  1  4  1  0
  1 24  1  0
  1  2  1  1
  1  3  2  0
  6 11  1  0
  6 12  1  0
 29 36  1  0
 29 37  1  0
  9  7  1  6
  7 13  1  0
 10  8  1  6
  8 14  1  0
 37 28  1  6
  4  5  1  0
 33 30  1  1
 30 38  1  0
 34 31  1  6
 31 39  1  0
 35 32  1  6
 32 40  1  0
 41 42  1  0
 41 43  1  0
 15 19  2  0
 16 22  2  0
 12 17  1  1
 17 19  1  0
 17 20  1  0
 18 19  1  0
 18 22  1  0
 18 23  1  0
  9 10  1  0
  9 11  1  0
 10 12  1  0
 11  5  1  1
 33 34  1  0
 33 35  1  0
 34 36  1  0
 35 37  1  0
 36 42  1  1
 20 21  2  0
 21 22  1  0
M  CHG  2   2  -1  26  -1
M  END
>  <COMPND>  (77) 
    8629 

>  <AUTHOR>  (77) 
    GENERATED BY OPEN BABEL 3.1.1

>  <MASTER>  (77) 
        0    0    0    0    0    0    0    0   58    0   58    0

>  <minimizedAffinity>  (77) 
-6.69917

>  <CNNscore>  (77) 
0.3685312271

>  <CNNaffinity>  (77) 
4.0952243805

>  <CNN_VS>  (77) 
1.5092180967

>  <CNNaffinity_variance>  (77) 
0.6833065748

$$$$
78
     RDKit          3D

 43 45  0  0  0  0  0  0  0  0999 V2000
   18.5087   72.5446   -1.7673 P   0  0  2  0  0  0  0  0  0  0  0  0
   19.0352   74.0743   -1.7498 O   0  0  0  0  0  0  0  0  0  0  0  0
   17.0242   72.3870   -1.9185 O   0  0  0  0  0  0  0  0  0  0  0  0
   19.1515   71.8973   -0.4310 O   0  0  0  0  0  0  0  0  0  0  0  0
   19.3230   72.7252    0.7062 C   0  0  0  0  0  0  0  0  0  0  0  0
   21.4240   71.5689    0.5559 O   0  0  0  0  0  0  0  0  0  0  0  0
   22.1324   72.9073    3.1439 O   0  0  0  0  0  0  0  0  0  0  0  0
   23.4565   74.4268    1.3070 O   0  0  0  0  0  0  0  0  0  0  0  0
   21.3745   73.4114    2.0454 C   0  0  1  0  0  0  0  0  0  0  0  0
   22.2892   73.7503    0.8870 C   0  0  2  0  0  0  0  0  0  0  0  0
   20.5523   72.2621    1.4758 C   0  0  1  0  0  0  0  0  0  0  0  0
   22.5855   72.3776    0.3074 C   0  0  2  0  0  0  0  0  0  0  0  0
   22.6655   73.6235    3.5245 H   0  0  0  0  0  0  0  0  0  0  0  0
   23.2156   75.2943    1.6678 H   0  0  0  0  0  0  0  0  0  0  0  0
   24.0639   70.4379   -1.1174 O   0  0  0  0  0  0  0  0  0  0  0  0
   23.4586   72.6483   -5.1160 O   0  0  0  0  0  0  0  0  0  0  0  0
   22.8295   72.4212   -1.1068 N   0  0  0  0  0  0  0  0  0  0  0  0
   23.7611   71.5400   -3.1073 N   0  0  0  0  0  0  0  0  0  0  0  0
   23.5851   71.3978   -1.7249 C   0  0  0  0  0  0  0  0  0  0  0  0
   22.3216   73.4700   -1.8656 C   0  0  0  0  0  0  0  0  0  0  0  0
   22.4995   73.5917   -3.1827 C   0  0  0  0  0  0  0  0  0  0  0  0
   23.2774   72.5646   -3.9052 C   0  0  0  0  0  0  0  0  0  0  0  0
   24.2846   70.8390   -3.5593 H   0  0  0  0  0  0  0  0  0  0  0  0
   19.3806   71.8737   -2.9516 O   0  0  0  0  0  0  0  0  0  0  0  0
   19.7130   70.3260   -3.2790 P   0  0  2  0  0  0  0  0  0  0  0  0
   18.4482   69.5345   -2.6533 O   0  0  0  0  0  0  0  0  0  0  0  0
   21.0471   69.8622   -2.7702 O   0  0  0  0  0  0  0  0  0  0  0  0
   19.5247   70.1969   -4.8768 O   0  0  0  0  0  0  0  0  0  0  0  0
   19.9565   71.4635   -6.8327 O   0  0  0  0  0  0  0  0  0  0  0  0
   15.9691   70.6014   -7.4717 O   0  0  0  0  0  0  0  0  0  0  0  0
   17.9749   69.2863   -9.0513 O   0  0  0  0  0  0  0  0  0  0  0  0
   16.9061   71.2030   -4.7997 O   0  0  0  0  0  0  0  0  0  0  0  0
   17.3005   70.3463   -7.0160 C   0  0  1  0  0  0  0  0  0  0  0  0
   18.2409   70.4133   -8.2210 C   0  0  1  0  0  0  0  0  0  0  0  0
   17.6825   71.3986   -5.9768 C   0  0  2  0  0  0  0  0  0  0  0  0
   19.7101   70.4156   -7.7777 C   0  0  1  0  0  0  0  0  0  0  0  0
   19.1744   71.3468   -5.6425 C   0  0  1  0  0  0  0  0  0  0  0  0
   15.7201   69.9364   -8.1316 H   0  0  0  0  0  0  0  0  0  0  0  0
   17.0439   69.2964   -9.3239 H   0  0  0  0  0  0  0  0  0  0  0  0
   15.9638   71.2383   -5.0246 H   0  0  0  0  0  0  0  0  0  0  0  0
   19.9195   71.1660  -10.0365 O   0  0  0  0  0  0  0  0  0  0  0  0
   20.6612   70.6404   -8.9511 C   0  0  0  0  0  0  0  0  0  0  0  0
   20.5120   71.3144  -10.7905 H   0  0  0  0  0  0  0  0  0  0  0  0
 25 28  1  0
 25 24  1  0
 25 26  1  1
 25 27  2  0
  1  4  1  0
  1 24  1  0
  1  2  1  1
  1  3  2  0
  6 11  1  0
  6 12  1  0
 29 36  1  0
 29 37  1  0
  9  7  1  1
  7 13  1  0
 10  8  1  1
  8 14  1  0
 37 28  1  6
  4  5  1  0
 33 30  1  6
 30 38  1  0
 34 31  1  6
 31 39  1  0
 35 32  1  1
 32 40  1  0
 41 42  1  0
 41 43  1  0
 15 19  2  0
 16 22  2  0
 12 17  1  6
 17 19  1  0
 17 20  1  0
 18 19  1  0
 18 22  1  0
 18 23  1  0
  9 10  1  0
  9 11  1  0
 10 12  1  0
 11  5  1  6
 33 34  1  0
 33 35  1  0
 34 36  1  0
 35 37  1  0
 36 42  1  6
 20 21  2  0
 21 22  1  0
M  CHG  2   2  -1  26  -1
M  END
>  <COMPND>  (78) 
    8629 

>  <AUTHOR>  (78) 
    GENERATED BY OPEN BABEL 3.1.1

>  <MASTER>  (78) 
        0    0    0    0    0    0    0    0   58    0   58    0

>  <minimizedAffinity>  (78) 
-7.26690

>  <CNNscore>  (78) 
0.3652230799

>  <CNNaffinity>  (78) 
3.8982586861

>  <CNN_VS>  (78) 
1.4237340689

>  <CNNaffinity_variance>  (78) 
0.6901121140

$$$$
79
     RDKit          3D

 43 45  0  0  0  0  0  0  0  0999 V2000
   21.5421   70.6196   -2.4730 P   0  0  2  0  0  0  0  0  0  0  0  0
   20.3121   69.8254   -1.7848 O   0  0  0  0  0  0  0  0  0  0  0  0
   22.7932   69.8123   -2.6586 O   0  0  0  0  0  0  0  0  0  0  0  0
   21.6947   71.9550   -1.5723 O   0  0  0  0  0  0  0  0  0  0  0  0
   22.5073   71.8992   -0.4128 C   0  0  0  0  0  0  0  0  0  0  0  0
   22.3021   72.6188    1.8706 O   0  0  0  0  0  0  0  0  0  0  0  0
   19.3570   72.1514    1.5572 O   0  0  0  0  0  0  0  0  0  0  0  0
   19.5607   74.8578    1.2924 O   0  0  0  0  0  0  0  0  0  0  0  0
   20.2983   72.6452    0.6057 C   0  0  1  0  0  0  0  0  0  0  0  0
   20.6805   74.0729    0.9364 C   0  0  2  0  0  0  0  0  0  0  0  0
   21.6134   71.9062    0.8198 C   0  0  1  0  0  0  0  0  0  0  0  0
   21.6500   73.8804    2.0901 C   0  0  2  0  0  0  0  0  0  0  0  0
   18.5088   72.6084    1.4398 H   0  0  0  0  0  0  0  0  0  0  0  0
   18.9742   74.9513    0.5255 H   0  0  0  0  0  0  0  0  0  0  0  0
   22.9728   74.6904    4.4507 O   0  0  0  0  0  0  0  0  0  0  0  0
   25.4435   77.8613    2.1963 O   0  0  0  0  0  0  0  0  0  0  0  0
   22.6438   74.9150    2.1488 N   0  0  0  0  0  0  0  0  0  0  0  0
   24.2021   76.2685    3.3262 N   0  0  0  0  0  0  0  0  0  0  0  0
   23.2467   75.2458    3.3848 C   0  0  0  0  0  0  0  0  0  0  0  0
   23.0115   75.5892    0.9895 C   0  0  0  0  0  0  0  0  0  0  0  0
   23.9234   76.5630    0.9508 C   0  0  0  0  0  0  0  0  0  0  0  0
   24.6007   76.9694    2.1990 C   0  0  0  0  0  0  0  0  0  0  0  0
   24.6351   76.5162    4.1752 H   0  0  0  0  0  0  0  0  0  0  0  0
   20.8925   71.1783   -3.8438 O   0  0  0  0  0  0  0  0  0  0  0  0
   21.1510   72.5499   -4.6592 P   0  0  2  0  0  0  0  0  0  0  0  0
   22.7068   72.4386   -5.0886 O   0  0  0  0  0  0  0  0  0  0  0  0
   20.8074   73.7949   -3.8938 O   0  0  0  0  0  0  0  0  0  0  0  0
   20.3332   72.3655   -6.0384 O   0  0  0  0  0  0  0  0  0  0  0  0
   18.4868   73.5456   -6.9410 O   0  0  0  0  0  0  0  0  0  0  0  0
   17.4498   69.7179   -8.0917 O   0  0  0  0  0  0  0  0  0  0  0  0
   18.3711   71.5910  -10.0643 O   0  0  0  0  0  0  0  0  0  0  0  0
   18.6719   70.1673   -5.5064 O   0  0  0  0  0  0  0  0  0  0  0  0
   18.3465   70.7955   -7.8087 C   0  0  1  0  0  0  0  0  0  0  0  0
   18.0038   71.9613   -8.7383 C   0  0  1  0  0  0  0  0  0  0  0  0
   18.1854   71.2082   -6.3469 C   0  0  2  0  0  0  0  0  0  0  0  0
   18.7400   73.2404   -8.3174 C   0  0  1  0  0  0  0  0  0  0  0  0
   18.9162   72.5179   -6.0458 C   0  0  1  0  0  0  0  0  0  0  0  0
   17.5474   69.4508   -9.0183 H   0  0  0  0  0  0  0  0  0  0  0  0
   17.8997   70.7818  -10.3176 H   0  0  0  0  0  0  0  0  0  0  0  0
   18.2012   69.3437   -5.7065 H   0  0  0  0  0  0  0  0  0  0  0  0
   17.0428   74.1572   -9.7273 O   0  0  0  0  0  0  0  0  0  0  0  0
   18.2932   74.4520   -9.1325 C   0  0  0  0  0  0  0  0  0  0  0  0
   16.7459   74.9196  -10.2491 H   0  0  0  0  0  0  0  0  0  0  0  0
 25 28  1  0
 25 24  1  0
 25 26  1  6
 25 27  2  0
  1  4  1  0
  1 24  1  0
  1  2  1  1
  1  3  2  0
  6 11  1  0
  6 12  1  0
 29 36  1  0
 29 37  1  0
  9  7  1  1
  7 13  1  0
 10  8  1  1
  8 14  1  0
 37 28  1  6
  4  5  1  0
 33 30  1  6
 30 38  1  0
 34 31  1  6
 31 39  1  0
 35 32  1  1
 32 40  1  0
 41 42  1  0
 41 43  1  0
 15 19  2  0
 16 22  2  0
 12 17  1  6
 17 19  1  0
 17 20  1  0
 18 19  1  0
 18 22  1  0
 18 23  1  0
  9 10  1  0
  9 11  1  0
 10 12  1  0
 11  5  1  6
 33 34  1  0
 33 35  1  0
 34 36  1  0
 35 37  1  0
 36 42  1  6
 20 21  2  0
 21 22  1  0
M  CHG  2   2  -1  26  -1
M  END
>  <COMPND>  (79) 
    8629 

>  <AUTHOR>  (79) 
    GENERATED BY OPEN BABEL 3.1.1

>  <MASTER>  (79) 
        0    0    0    0    0    0    0    0   58    0   58    0

>  <minimizedAffinity>  (79) 
-7.23207

>  <CNNscore>  (79) 
0.3548948169

>  <CNNaffinity>  (79) 
3.9812722206

>  <CNN_VS>  (79) 
1.4129328728

>  <CNNaffinity_variance>  (79) 
0.0318331905

$$$$
80
     RDKit          3D

 43 45  0  0  0  0  0  0  0  0999 V2000
   20.7448   70.1689   -1.8482 P   0  0  2  0  0  0  0  0  0  0  0  0
   19.9002   69.3457   -0.7408 O   0  0  0  0  0  0  0  0  0  0  0  0
   22.1704   69.7306   -2.0127 O   0  0  0  0  0  0  0  0  0  0  0  0
   20.5295   71.7168   -1.4292 O   0  0  0  0  0  0  0  0  0  0  0  0
   20.0493   72.0044   -0.1275 C   0  0  0  0  0  0  0  0  0  0  0  0
   22.3657   72.5727    0.1642 O   0  0  0  0  0  0  0  0  0  0  0  0
   21.8381   72.4218    3.1120 O   0  0  0  0  0  0  0  0  0  0  0  0
   21.8007   75.1071    2.6382 O   0  0  0  0  0  0  0  0  0  0  0  0
   20.9876   72.8884    2.0660 C   0  0  1  0  0  0  0  0  0  0  0  0
   21.4525   74.2436    1.5752 C   0  0  2  0  0  0  0  0  0  0  0  0
   21.2221   72.0098    0.8435 C   0  0  1  0  0  0  0  0  0  0  0  0
   22.6441   73.8731    0.7087 C   0  0  2  0  0  0  0  0  0  0  0  0
   21.7059   72.9675    3.9037 H   0  0  0  0  0  0  0  0  0  0  0  0
   21.0094   75.3134    3.1598 H   0  0  0  0  0  0  0  0  0  0  0  0
   23.9572   76.3611    0.9610 O   0  0  0  0  0  0  0  0  0  0  0  0
   23.3538   77.3391   -3.5023 O   0  0  0  0  0  0  0  0  0  0  0  0
   22.8445   74.7977   -0.3713 N   0  0  0  0  0  0  0  0  0  0  0  0
   23.6559   76.8459   -1.2616 N   0  0  0  0  0  0  0  0  0  0  0  0
   23.5155   76.0208   -0.1385 C   0  0  0  0  0  0  0  0  0  0  0  0
   22.3784   74.4878   -1.6443 C   0  0  0  0  0  0  0  0  0  0  0  0
   22.5191   75.2862   -2.7045 C   0  0  0  0  0  0  0  0  0  0  0  0
   23.2087   76.5829   -2.5468 C   0  0  0  0  0  0  0  0  0  0  0  0
   24.1198   77.7035   -1.1233 H   0  0  0  0  0  0  0  0  0  0  0  0
   19.8385   70.0232   -3.1788 O   0  0  0  0  0  0  0  0  0  0  0  0
   18.2383   69.8882   -3.3637 P   0  0  2  0  0  0  0  0  0  0  0  0
   17.6845   71.3236   -2.8633 O   0  0  0  0  0  0  0  0  0  0  0  0
   17.6343   68.7103   -2.6555 O   0  0  0  0  0  0  0  0  0  0  0  0
   18.0095   69.8974   -4.9613 O   0  0  0  0  0  0  0  0  0  0  0  0
   18.9457   71.9295   -5.7428 O   0  0  0  0  0  0  0  0  0  0  0  0
   17.5480   70.4261   -9.3257 O   0  0  0  0  0  0  0  0  0  0  0  0
   20.3721   70.4523   -8.8042 O   0  0  0  0  0  0  0  0  0  0  0  0
   15.9958   70.0731   -6.9080 O   0  0  0  0  0  0  0  0  0  0  0  0
   18.1163   70.3535   -8.0153 C   0  0  1  0  0  0  0  0  0  0  0  0
   19.4190   71.1558   -8.0124 C   0  0  1  0  0  0  0  0  0  0  0  0
   17.1250   70.9341   -7.0085 C   0  0  2  0  0  0  0  0  0  0  0  0
   19.9481   71.3480   -6.5847 C   0  0  1  0  0  0  0  0  0  0  0  0
   17.7661   71.1304   -5.6335 C   0  0  1  0  0  0  0  0  0  0  0  0
   18.1723   70.0585   -9.9697 H   0  0  0  0  0  0  0  0  0  0  0  0
   20.0256   70.3372   -9.7030 H   0  0  0  0  0  0  0  0  0  0  0  0
   15.5987   69.9571   -7.7848 H   0  0  0  0  0  0  0  0  0  0  0  0
   21.4398   72.5906   -5.1920 O   0  0  0  0  0  0  0  0  0  0  0  0
   21.1591   72.2774   -6.5438 C   0  0  0  0  0  0  0  0  0  0  0  0
   22.2085   73.1813   -5.1505 H   0  0  0  0  0  0  0  0  0  0  0  0
 25 28  1  0
 25 24  1  0
 25 26  1  1
 25 27  2  0
  1  4  1  0
  1 24  1  0
  1  2  1  1
  1  3  2  0
  6 11  1  0
  6 12  1  0
 29 36  1  0
 29 37  1  0
  9  7  1  1
  7 13  1  0
 10  8  1  1
  8 14  1  0
 37 28  1  6
  4  5  1  0
 33 30  1  6
 30 38  1  0
 34 31  1  6
 31 39  1  0
 35 32  1  1
 32 40  1  0
 41 42  1  0
 41 43  1  0
 15 19  2  0
 16 22  2  0
 12 17  1  6
 17 19  1  0
 17 20  1  0
 18 19  1  0
 18 22  1  0
 18 23  1  0
  9 10  1  0
  9 11  1  0
 10 12  1  0
 11  5  1  6
 33 34  1  0
 33 35  1  0
 34 36  1  0
 35 37  1  0
 36 42  1  6
 20 21  2  0
 21 22  1  0
M  CHG  2   2  -1  26  -1
M  END
>  <COMPND>  (80) 
    8629 

>  <AUTHOR>  (80) 
    GENERATED BY OPEN BABEL 3.1.1

>  <MASTER>  (80) 
        0    0    0    0    0    0    0    0   58    0   58    0

>  <minimizedAffinity>  (80) 
-7.75774

>  <CNNscore>  (80) 
0.3487444818

>  <CNNaffinity>  (80) 
3.8743152618

>  <CNN_VS>  (80) 
1.3511461020

>  <CNNaffinity_variance>  (80) 
0.3572366834

$$$$
81
     RDKit          3D

 43 45  0  0  0  0  0  0  0  0999 V2000
   20.6484   70.0927   -1.6705 P   0  0  2  0  0  0  0  0  0  0  0  0
   22.2617   70.2078   -1.6316 O   0  0  0  0  0  0  0  0  0  0  0  0
   20.0547   69.1628   -0.6535 O   0  0  0  0  0  0  0  0  0  0  0  0
   20.3210   69.7449   -3.2164 O   0  0  0  0  0  0  0  0  0  0  0  0
   19.1154   69.0630   -3.5152 C   0  0  0  0  0  0  0  0  0  0  0  0
   18.1499   70.9857   -4.5852 O   0  0  0  0  0  0  0  0  0  0  0  0
   15.6099   70.2693   -3.1619 O   0  0  0  0  0  0  0  0  0  0  0  0
   15.1673   69.3222   -5.6806 O   0  0  0  0  0  0  0  0  0  0  0  0
   16.6035   69.4117   -3.7209 C   0  0  1  0  0  0  0  0  0  0  0  0
   16.5046   69.4073   -5.2321 C   0  0  2  0  0  0  0  0  0  0  0  0
   17.9639   70.0589   -3.4930 C   0  0  1  0  0  0  0  0  0  0  0  0
   17.1598   70.7292   -5.5945 C   0  0  2  0  0  0  0  0  0  0  0  0
   14.7323   69.8767   -3.2949 H   0  0  0  0  0  0  0  0  0  0  0  0
   14.7947   68.4637   -5.4259 H   0  0  0  0  0  0  0  0  0  0  0  0
   15.7951   70.8246   -8.0656 O   0  0  0  0  0  0  0  0  0  0  0  0
   19.7271   70.5642  -10.4557 O   0  0  0  0  0  0  0  0  0  0  0  0
   17.8021   70.6884   -6.8780 N   0  0  0  0  0  0  0  0  0  0  0  0
   17.7541   70.6950   -9.2537 N   0  0  0  0  0  0  0  0  0  0  0  0
   17.0250   70.7413   -8.0586 C   0  0  0  0  0  0  0  0  0  0  0  0
   19.1875   70.5973   -6.9570 C   0  0  0  0  0  0  0  0  0  0  0  0
   19.8675   70.5528   -8.1046 C   0  0  0  0  0  0  0  0  0  0  0  0
   19.1308   70.6032   -9.3840 C   0  0  0  0  0  0  0  0  0  0  0  0
   17.2337   70.7301  -10.0890 H   0  0  0  0  0  0  0  0  0  0  0  0
   20.1709   71.6311   -1.5352 O   0  0  0  0  0  0  0  0  0  0  0  0
   20.8887   73.0086   -1.9824 P   0  0  2  0  0  0  0  0  0  0  0  0
   19.6658   73.8909   -2.5686 O   0  0  0  0  0  0  0  0  0  0  0  0
   22.0328   72.8247   -2.9370 O   0  0  0  0  0  0  0  0  0  0  0  0
   21.2848   73.7320   -0.5951 O   0  0  0  0  0  0  0  0  0  0  0  0
   23.2497   74.6741    0.3367 O   0  0  0  0  0  0  0  0  0  0  0  0
   21.9788   72.4572    3.5803 O   0  0  0  0  0  0  0  0  0  0  0  0
   21.7442   75.3189    3.6391 O   0  0  0  0  0  0  0  0  0  0  0  0
   21.6917   71.3942    0.9031 O   0  0  0  0  0  0  0  0  0  0  0  0
   21.8188   73.2670    2.4124 C   0  0  1  0  0  0  0  0  0  0  0  0
   22.5044   74.6115    2.6635 C   0  0  1  0  0  0  0  0  0  0  0  0
   22.4538   72.5542    1.2199 C   0  0  2  0  0  0  0  0  0  0  0  0
   22.6081   75.4307    1.3699 C   0  0  1  0  0  0  0  0  0  0  0  0
   22.5534   73.4725    0.0005 C   0  0  1  0  0  0  0  0  0  0  0  0
   21.5773   72.9039    4.3410 H   0  0  0  0  0  0  0  0  0  0  0  0
   21.6859   74.7907    4.4508 H   0  0  0  0  0  0  0  0  0  0  0  0
   21.6363   70.8210    1.6830 H   0  0  0  0  0  0  0  0  0  0  0  0
   24.6708   76.3558    2.1433 O   0  0  0  0  0  0  0  0  0  0  0  0
   23.4271   76.7049    1.5639 C   0  0  0  0  0  0  0  0  0  0  0  0
   25.2029   77.1570    2.2724 H   0  0  0  0  0  0  0  0  0  0  0  0
 25 28  1  0
 25 24  1  0
 25 26  1  6
 25 27  2  0
  1  4  1  0
  1 24  1  0
  1  2  1  6
  1  3  2  0
  6 11  1  0
  6 12  1  0
 29 36  1  0
 29 37  1  0
  9  7  1  1
  7 13  1  0
 10  8  1  1
  8 14  1  0
 37 28  1  1
  4  5  1  0
 33 30  1  1
 30 38  1  0
 34 31  1  1
 31 39  1  0
 35 32  1  6
 32 40  1  0
 41 42  1  0
 41 43  1  0
 15 19  2  0
 16 22  2  0
 12 17  1  6
 17 19  1  0
 17 20  1  0
 18 19  1  0
 18 22  1  0
 18 23  1  0
  9 10  1  0
  9 11  1  0
 10 12  1  0
 11  5  1  6
 33 34  1  0
 33 35  1  0
 34 36  1  0
 35 37  1  0
 36 42  1  1
 20 21  2  0
 21 22  1  0
M  CHG  2   2  -1  26  -1
M  END
>  <COMPND>  (81) 
    8629 

>  <AUTHOR>  (81) 
    GENERATED BY OPEN BABEL 3.1.1

>  <MASTER>  (81) 
        0    0    0    0    0    0    0    0   58    0   58    0

>  <minimizedAffinity>  (81) 
-8.20066

>  <CNNscore>  (81) 
0.8804248571

>  <CNNaffinity>  (81) 
4.6660118103

>  <CNN_VS>  (81) 
4.1080727577

>  <CNNaffinity_variance>  (81) 
0.0856322199

$$$$
82
     RDKit          3D

 43 45  0  0  0  0  0  0  0  0999 V2000
   23.5416   70.9890   -2.6324 P   0  0  2  0  0  0  0  0  0  0  0  0
   23.9419   72.1040   -3.7342 O   0  0  0  0  0  0  0  0  0  0  0  0
   24.5871   69.9424   -2.3810 O   0  0  0  0  0  0  0  0  0  0  0  0
   22.1060   70.4407   -3.1385 O   0  0  0  0  0  0  0  0  0  0  0  0
   21.2396   71.3365   -3.8128 C   0  0  0  0  0  0  0  0  0  0  0  0
   18.9037   71.5218   -4.3447 O   0  0  0  0  0  0  0  0  0  0  0  0
   18.4226   69.6719   -2.0344 O   0  0  0  0  0  0  0  0  0  0  0  0
   18.2225   68.0043   -4.1829 O   0  0  0  0  0  0  0  0  0  0  0  0
   19.4977   69.6835   -2.9723 C   0  0  1  0  0  0  0  0  0  0  0  0
   19.0316   69.1555   -4.3130 C   0  0  2  0  0  0  0  0  0  0  0  0
   19.8209   71.1365   -3.2975 C   0  0  1  0  0  0  0  0  0  0  0  0
   18.2701   70.3451   -4.8726 C   0  0  2  0  0  0  0  0  0  0  0  0
   18.1985   68.7544   -1.8111 H   0  0  0  0  0  0  0  0  0  0  0  0
   18.7521   67.2757   -3.8232 H   0  0  0  0  0  0  0  0  0  0  0  0
   16.0588   69.8311   -6.5530 O   0  0  0  0  0  0  0  0  0  0  0  0
   18.5476   70.5705  -10.3609 O   0  0  0  0  0  0  0  0  0  0  0  0
   18.3119   70.3966   -6.3068 N   0  0  0  0  0  0  0  0  0  0  0  0
   17.2998   70.1998   -8.4477 N   0  0  0  0  0  0  0  0  0  0  0  0
   17.1455   70.1206   -7.0578 C   0  0  0  0  0  0  0  0  0  0  0  0
   19.4998   70.7183   -6.9544 C   0  0  0  0  0  0  0  0  0  0  0  0
   19.6306   70.7884   -8.2807 C   0  0  0  0  0  0  0  0  0  0  0  0
   18.4595   70.5142   -9.1383 C   0  0  0  0  0  0  0  0  0  0  0  0
   16.5006   70.0112   -8.9913 H   0  0  0  0  0  0  0  0  0  0  0  0
   23.1555   71.8784   -1.3390 O   0  0  0  0  0  0  0  0  0  0  0  0
   22.5155   71.4591    0.0850 P   0  0  2  0  0  0  0  0  0  0  0  0
   23.6697   70.5453    0.7559 O   0  0  0  0  0  0  0  0  0  0  0  0
   21.1757   70.7891   -0.0159 O   0  0  0  0  0  0  0  0  0  0  0  0
   22.5187   72.8209    0.9512 O   0  0  0  0  0  0  0  0  0  0  0  0
   20.4903   73.7952    0.2076 O   0  0  0  0  0  0  0  0  0  0  0  0
   21.3899   76.4062    3.2775 O   0  0  0  0  0  0  0  0  0  0  0  0
   19.2414   74.5275    3.5977 O   0  0  0  0  0  0  0  0  0  0  0  0
   23.5070   75.3662    1.5995 O   0  0  0  0  0  0  0  0  0  0  0  0
   21.3371   75.1375    2.6195 C   0  0  1  0  0  0  0  0  0  0  0  0
   19.8700   74.7988    2.3481 C   0  0  1  0  0  0  0  0  0  0  0  0
   22.1206   75.2209    1.3109 C   0  0  2  0  0  0  0  0  0  0  0  0
   19.7447   73.5883    1.4131 C   0  0  1  0  0  0  0  0  0  0  0  0
   21.8878   73.9894    0.4337 C   0  0  1  0  0  0  0  0  0  0  0  0
   20.8947   76.3599    4.1095 H   0  0  0  0  0  0  0  0  0  0  0  0
   19.3281   75.2994    4.1789 H   0  0  0  0  0  0  0  0  0  0  0  0
   23.6412   76.1493    2.1550 H   0  0  0  0  0  0  0  0  0  0  0  0
   18.2701   73.0103   -0.3759 O   0  0  0  0  0  0  0  0  0  0  0  0
   18.2965   73.3299    1.0030 C   0  0  0  0  0  0  0  0  0  0  0  0
   17.3547   72.8430   -0.6510 H   0  0  0  0  0  0  0  0  0  0  0  0
 25 28  1  0
 25 24  1  0
 25 26  1  1
 25 27  2  0
  1  4  1  0
  1 24  1  0
  1  2  1  6
  1  3  2  0
  6 11  1  0
  6 12  1  0
 29 36  1  0
 29 37  1  0
  9  7  1  1
  7 13  1  0
 10  8  1  1
  8 14  1  0
 37 28  1  1
  4  5  1  0
 33 30  1  6
 30 38  1  0
 34 31  1  1
 31 39  1  0
 35 32  1  1
 32 40  1  0
 41 42  1  0
 41 43  1  0
 15 19  2  0
 16 22  2  0
 12 17  1  6
 17 19  1  0
 17 20  1  0
 18 19  1  0
 18 22  1  0
 18 23  1  0
  9 10  1  0
  9 11  1  0
 10 12  1  0
 11  5  1  6
 33 34  1  0
 33 35  1  0
 34 36  1  0
 35 37  1  0
 36 42  1  6
 20 21  2  0
 21 22  1  0
M  CHG  2   2  -1  26  -1
M  END
>  <COMPND>  (82) 
    8629 

>  <AUTHOR>  (82) 
    GENERATED BY OPEN BABEL 3.1.1

>  <MASTER>  (82) 
        0    0    0    0    0    0    0    0   58    0   58    0

>  <minimizedAffinity>  (82) 
-7.74175

>  <CNNscore>  (82) 
0.5421988964

>  <CNNaffinity>  (82) 
4.4945864677

>  <CNN_VS>  (82) 
2.4369597435

>  <CNNaffinity_variance>  (82) 
0.0423981957

$$$$
83
     RDKit          3D

 43 45  0  0  0  0  0  0  0  0999 V2000
   22.6695   72.7992   -3.9033 P   0  0  2  0  0  0  0  0  0  0  0  0
   24.0141   72.9166   -4.7953 O   0  0  0  0  0  0  0  0  0  0  0  0
   22.3814   73.9863   -3.0319 O   0  0  0  0  0  0  0  0  0  0  0  0
   22.8364   71.3862   -3.1331 O   0  0  0  0  0  0  0  0  0  0  0  0
   23.4259   71.3840   -1.8445 C   0  0  0  0  0  0  0  0  0  0  0  0
   22.7194   71.1799    0.4431 O   0  0  0  0  0  0  0  0  0  0  0  0
   20.3136   69.7432   -0.6240 O   0  0  0  0  0  0  0  0  0  0  0  0
   19.3429   72.2436   -0.1319 O   0  0  0  0  0  0  0  0  0  0  0  0
   21.0293   70.8431   -1.1835 C   0  0  1  0  0  0  0  0  0  0  0  0
   20.7200   72.1144   -0.4207 C   0  0  2  0  0  0  0  0  0  0  0  0
   22.5091   70.6427   -0.8811 C   0  0  1  0  0  0  0  0  0  0  0  0
   21.5663   71.9453    0.8296 C   0  0  2  0  0  0  0  0  0  0  0  0
   19.3658   69.8488   -0.8046 H   0  0  0  0  0  0  0  0  0  0  0  0
   18.8473   72.3486   -0.9590 H   0  0  0  0  0  0  0  0  0  0  0  0
   21.9994   72.4351    3.5775 O   0  0  0  0  0  0  0  0  0  0  0  0
   23.2318   76.8060    2.7916 O   0  0  0  0  0  0  0  0  0  0  0  0
   22.0009   73.2021    1.3709 N   0  0  0  0  0  0  0  0  0  0  0  0
   22.6129   74.6110    3.1839 N   0  0  0  0  0  0  0  0  0  0  0  0
   22.1875   73.3436    2.7658 C   0  0  0  0  0  0  0  0  0  0  0  0
   22.2378   74.2776    0.5217 C   0  0  0  0  0  0  0  0  0  0  0  0
   22.6419   75.4800    0.9365 C   0  0  0  0  0  0  0  0  0  0  0  0
   22.8605   75.7116    2.3789 C   0  0  0  0  0  0  0  0  0  0  0  0
   22.7491   74.7331    4.1515 H   0  0  0  0  0  0  0  0  0  0  0  0
   21.5296   72.4805   -5.0042 O   0  0  0  0  0  0  0  0  0  0  0  0
   20.4451   73.4430   -5.7186 P   0  0  2  0  0  0  0  0  0  0  0  0
   21.3416   74.6786   -6.2544 O   0  0  0  0  0  0  0  0  0  0  0  0
   19.3018   73.8458   -4.8328 O   0  0  0  0  0  0  0  0  0  0  0  0
   20.0089   72.6470   -7.0532 O   0  0  0  0  0  0  0  0  0  0  0  0
   19.1659   70.6809   -6.0332 O   0  0  0  0  0  0  0  0  0  0  0  0
   17.7978   70.0668   -9.8805 O   0  0  0  0  0  0  0  0  0  0  0  0
   15.9374   70.7740   -7.8100 O   0  0  0  0  0  0  0  0  0  0  0  0
   20.4095   71.2371   -9.4463 O   0  0  0  0  0  0  0  0  0  0  0  0
   18.1447   70.8408   -8.7290 C   0  0  1  0  0  0  0  0  0  0  0  0
   17.2805   70.3708   -7.5571 C   0  0  1  0  0  0  0  0  0  0  0  0
   19.6267   70.6381   -8.4193 C   0  0  2  0  0  0  0  0  0  0  0  0
   17.7757   70.9635   -6.2310 C   0  0  1  0  0  0  0  0  0  0  0  0
   20.0039   71.2218   -7.0565 C   0  0  1  0  0  0  0  0  0  0  0  0
   16.8581   70.1914  -10.0828 H   0  0  0  0  0  0  0  0  0  0  0  0
   15.6371   70.3935   -8.6503 H   0  0  0  0  0  0  0  0  0  0  0  0
   20.1615   70.8590  -10.3039 H   0  0  0  0  0  0  0  0  0  0  0  0
   16.6769   69.0454   -5.3241 O   0  0  0  0  0  0  0  0  0  0  0  0
   17.0279   70.3853   -5.0316 C   0  0  0  0  0  0  0  0  0  0  0  0
   16.2006   68.6644   -4.5694 H   0  0  0  0  0  0  0  0  0  0  0  0
 25 28  1  0
 25 24  1  0
 25 26  1  6
 25 27  2  0
  1  4  1  0
  1 24  1  0
  1  2  1  6
  1  3  2  0
  6 11  1  0
  6 12  1  0
 29 36  1  0
 29 37  1  0
  9  7  1  1
  7 13  1  0
 10  8  1  1
  8 14  1  0
 37 28  1  6
  4  5  1  0
 33 30  1  6
 30 38  1  0
 34 31  1  6
 31 39  1  0
 35 32  1  6
 32 40  1  0
 41 42  1  0
 41 43  1  0
 15 19  2  0
 16 22  2  0
 12 17  1  6
 17 19  1  0
 17 20  1  0
 18 19  1  0
 18 22  1  0
 18 23  1  0
  9 10  1  0
  9 11  1  0
 10 12  1  0
 11  5  1  6
 33 34  1  0
 33 35  1  0
 34 36  1  0
 35 37  1  0
 36 42  1  1
 20 21  2  0
 21 22  1  0
M  CHG  2   2  -1  26  -1
M  END
>  <COMPND>  (83) 
    8629 

>  <AUTHOR>  (83) 
    GENERATED BY OPEN BABEL 3.1.1

>  <MASTER>  (83) 
        0    0    0    0    0    0    0    0   58    0   58    0

>  <minimizedAffinity>  (83) 
-8.36093

>  <CNNscore>  (83) 
0.5083733201

>  <CNNaffinity>  (83) 
4.1796493530

>  <CNN_VS>  (83) 
2.1248221397

>  <CNNaffinity_variance>  (83) 
0.1543612778

$$$$
84
     RDKit          3D

 43 45  0  0  0  0  0  0  0  0999 V2000
   23.4267   70.6530   -2.1358 P   0  0  2  0  0  0  0  0  0  0  0  0
   23.9670   71.4615   -3.4288 O   0  0  0  0  0  0  0  0  0  0  0  0
   24.4842   69.9358   -1.3493 O   0  0  0  0  0  0  0  0  0  0  0  0
   22.2395   69.7254   -2.7259 O   0  0  0  0  0  0  0  0  0  0  0  0
   21.4370   70.2401   -3.7743 C   0  0  0  0  0  0  0  0  0  0  0  0
   19.2680   71.1458   -4.2729 O   0  0  0  0  0  0  0  0  0  0  0  0
   18.2344   69.3847   -2.0772 O   0  0  0  0  0  0  0  0  0  0  0  0
   17.5677   67.9884   -4.3227 O   0  0  0  0  0  0  0  0  0  0  0  0
   19.2733   69.1331   -3.0220 C   0  0  1  0  0  0  0  0  0  0  0  0
   18.6844   68.8517   -4.3886 C   0  0  2  0  0  0  0  0  0  0  0  0
   20.0182   70.4408   -3.2598 C   0  0  1  0  0  0  0  0  0  0  0  0
   18.3177   70.2463   -4.8669 C   0  0  2  0  0  0  0  0  0  0  0  0
   17.7447   68.5638   -1.9090 H   0  0  0  0  0  0  0  0  0  0  0  0
   17.8524   67.1142   -4.0135 H   0  0  0  0  0  0  0  0  0  0  0  0
   16.1434   69.8057   -6.6150 O   0  0  0  0  0  0  0  0  0  0  0  0
   18.7011   70.7535  -10.3299 O   0  0  0  0  0  0  0  0  0  0  0  0
   18.3873   70.3713   -6.2955 N   0  0  0  0  0  0  0  0  0  0  0  0
   17.4187   70.2782   -8.4633 N   0  0  0  0  0  0  0  0  0  0  0  0
   17.2378   70.1271   -7.0826 C   0  0  0  0  0  0  0  0  0  0  0  0
   19.5854   70.7327   -6.9020 C   0  0  0  0  0  0  0  0  0  0  0  0
   19.7416   70.8713   -8.2202 C   0  0  0  0  0  0  0  0  0  0  0  0
   18.5895   70.6343   -9.1137 C   0  0  0  0  0  0  0  0  0  0  0  0
   16.6316   70.1128   -9.0317 H   0  0  0  0  0  0  0  0  0  0  0  0
   22.6248   71.7862   -1.3076 O   0  0  0  0  0  0  0  0  0  0  0  0
   21.7877   71.6994    0.0725 P   0  0  2  0  0  0  0  0  0  0  0  0
   22.9038   71.2544    1.1560 O   0  0  0  0  0  0  0  0  0  0  0  0
   20.5903   70.7959    0.0102 O   0  0  0  0  0  0  0  0  0  0  0  0
   21.4495   73.2336    0.4423 O   0  0  0  0  0  0  0  0  0  0  0  0
   22.7046   75.2419    0.5306 O   0  0  0  0  0  0  0  0  0  0  0  0
   20.5797   75.6366    4.0492 O   0  0  0  0  0  0  0  0  0  0  0  0
   19.9148   77.2913    1.7980 O   0  0  0  0  0  0  0  0  0  0  0  0
   21.5620   73.0368    3.2394 O   0  0  0  0  0  0  0  0  0  0  0  0
   20.7858   75.2492    2.6880 C   0  0  1  0  0  0  0  0  0  0  0  0
   21.1012   76.5058    1.8743 C   0  0  1  0  0  0  0  0  0  0  0  0
   21.9476   74.2597    2.6210 C   0  0  2  0  0  0  0  0  0  0  0  0
   21.5946   76.1450    0.4666 C   0  0  1  0  0  0  0  0  0  0  0  0
   22.3924   74.0076    1.1793 C   0  0  1  0  0  0  0  0  0  0  0  0
   19.8430   76.2645    4.0987 H   0  0  0  0  0  0  0  0  0  0  0  0
   19.6136   77.5119    2.6934 H   0  0  0  0  0  0  0  0  0  0  0  0
   21.2829   73.2098    4.1516 H   0  0  0  0  0  0  0  0  0  0  0  0
   22.3588   78.4036    0.6190 O   0  0  0  0  0  0  0  0  0  0  0  0
   22.0640   77.3747   -0.3076 C   0  0  0  0  0  0  0  0  0  0  0  0
   22.6592   79.1926    0.1405 H   0  0  0  0  0  0  0  0  0  0  0  0
 25 28  1  0
 25 24  1  0
 25 26  1  1
 25 27  2  0
  1  4  1  0
  1 24  1  0
  1  2  1  6
  1  3  2  0
  6 11  1  0
  6 12  1  0
 29 36  1  0
 29 37  1  0
  9  7  1  1
  7 13  1  0
 10  8  1  1
  8 14  1  0
 37 28  1  6
  4  5  1  0
 33 30  1  1
 30 38  1  0
 34 31  1  6
 31 39  1  0
 35 32  1  6
 32 40  1  0
 41 42  1  0
 41 43  1  0
 15 19  2  0
 16 22  2  0
 12 17  1  6
 17 19  1  0
 17 20  1  0
 18 19  1  0
 18 22  1  0
 18 23  1  0
  9 10  1  0
  9 11  1  0
 10 12  1  0
 11  5  1  6
 33 34  1  0
 33 35  1  0
 34 36  1  0
 35 37  1  0
 36 42  1  1
 20 21  2  0
 21 22  1  0
M  CHG  2   2  -1  26  -1
M  END
>  <COMPND>  (84) 
    8629 

>  <AUTHOR>  (84) 
    GENERATED BY OPEN BABEL 3.1.1

>  <MASTER>  (84) 
        0    0    0    0    0    0    0    0   58    0   58    0

>  <minimizedAffinity>  (84) 
-8.06019

>  <CNNscore>  (84) 
0.4875604510

>  <CNNaffinity>  (84) 
4.5233850479

>  <CNN_VS>  (84) 
2.2054235935

>  <CNNaffinity_variance>  (84) 
0.0611695275

$$$$
85
     RDKit          3D

 43 45  0  0  0  0  0  0  0  0999 V2000
   20.0910   75.3405   -4.9568 P   0  0  2  0  0  0  0  0  0  0  0  0
   19.1167   74.6710   -3.8523 O   0  0  0  0  0  0  0  0  0  0  0  0
   20.5421   76.7363   -4.6411 O   0  0  0  0  0  0  0  0  0  0  0  0
   19.2834   75.1607   -6.3472 O   0  0  0  0  0  0  0  0  0  0  0  0
   18.4660   74.0148   -6.5110 C   0  0  0  0  0  0  0  0  0  0  0  0
   19.5447   71.8704   -6.6195 O   0  0  0  0  0  0  0  0  0  0  0  0
   19.1588   72.0354   -9.5884 O   0  0  0  0  0  0  0  0  0  0  0  0
   17.1386   70.3735   -8.8179 O   0  0  0  0  0  0  0  0  0  0  0  0
   18.3034   72.4896   -8.5408 C   0  0  1  0  0  0  0  0  0  0  0  0
   17.6147   71.3150   -7.8778 C   0  0  2  0  0  0  0  0  0  0  0  0
   19.1818   73.0203   -7.4147 C   0  0  1  0  0  0  0  0  0  0  0  0
   18.7210   70.7559   -6.9994 C   0  0  2  0  0  0  0  0  0  0  0  0
   18.6204   71.6920  -10.3193 H   0  0  0  0  0  0  0  0  0  0  0  0
   16.4367   70.7765   -9.3523 H   0  0  0  0  0  0  0  0  0  0  0  0
   20.3363   69.6584   -4.9587 O   0  0  0  0  0  0  0  0  0  0  0  0
   16.6628   68.3620   -2.4958 O   0  0  0  0  0  0  0  0  0  0  0  0
   18.2131   70.1258   -5.8135 N   0  0  0  0  0  0  0  0  0  0  0  0
   18.5059   69.0140   -3.7339 N   0  0  0  0  0  0  0  0  0  0  0  0
   19.1094   69.6061   -4.8507 C   0  0  0  0  0  0  0  0  0  0  0  0
   16.8402   70.0283   -5.6143 C   0  0  0  0  0  0  0  0  0  0  0  0
   16.2806   69.4594   -4.5445 C   0  0  0  0  0  0  0  0  0  0  0  0
   17.1469   68.8917   -3.4913 C   0  0  0  0  0  0  0  0  0  0  0  0
   19.1106   68.6446   -3.0501 H   0  0  0  0  0  0  0  0  0  0  0  0
   21.2867   74.2608   -5.0889 O   0  0  0  0  0  0  0  0  0  0  0  0
   22.5686   73.9758   -4.1463 P   0  0  2  0  0  0  0  0  0  0  0  0
   23.1056   75.4602   -3.7915 O   0  0  0  0  0  0  0  0  0  0  0  0
   23.5991   73.0758   -4.7644 O   0  0  0  0  0  0  0  0  0  0  0  0
   21.9444   73.4267   -2.7629 O   0  0  0  0  0  0  0  0  0  0  0  0
   22.6466   71.2040   -2.3348 O   0  0  0  0  0  0  0  0  0  0  0  0
   19.8269   71.5929    0.6567 O   0  0  0  0  0  0  0  0  0  0  0  0
   22.6180   71.5746    1.3327 O   0  0  0  0  0  0  0  0  0  0  0  0
   19.3426   72.7653   -1.9453 O   0  0  0  0  0  0  0  0  0  0  0  0
   20.8622   72.0381   -0.2239 C   0  0  1  0  0  0  0  0  0  0  0  0
   22.1163   71.2060    0.0511 C   0  0  1  0  0  0  0  0  0  0  0  0
   20.4016   71.8550   -1.6687 C   0  0  2  0  0  0  0  0  0  0  0  0
   23.1829   71.4387   -1.0275 C   0  0  1  0  0  0  0  0  0  0  0  0
   21.5499   72.0612   -2.6581 C   0  0  1  0  0  0  0  0  0  0  0  0
   20.1128   71.7068    1.5758 H   0  0  0  0  0  0  0  0  0  0  0  0
   21.9347   71.4233    2.0046 H   0  0  0  0  0  0  0  0  0  0  0  0
   18.6218   72.6245   -1.3125 H   0  0  0  0  0  0  0  0  0  0  0  0
   24.0952   69.5945    0.1873 O   0  0  0  0  0  0  0  0  0  0  0  0
   24.3782   70.5029   -0.8611 C   0  0  0  0  0  0  0  0  0  0  0  0
   24.8472   68.9924    0.3044 H   0  0  0  0  0  0  0  0  0  0  0  0
 25 28  1  0
 25 24  1  0
 25 26  1  1
 25 27  2  0
  1  4  1  0
  1 24  1  0
  1  2  1  1
  1  3  2  0
  6 11  1  0
  6 12  1  0
 29 36  1  0
 29 37  1  0
  9  7  1  6
  7 13  1  0
 10  8  1  6
  8 14  1  0
 37 28  1  1
  4  5  1  0
 33 30  1  1
 30 38  1  0
 34 31  1  1
 31 39  1  0
 35 32  1  6
 32 40  1  0
 41 42  1  0
 41 43  1  0
 15 19  2  0
 16 22  2  0
 12 17  1  1
 17 19  1  0
 17 20  1  0
 18 19  1  0
 18 22  1  0
 18 23  1  0
  9 10  1  0
  9 11  1  0
 10 12  1  0
 11  5  1  1
 33 34  1  0
 33 35  1  0
 34 36  1  0
 35 37  1  0
 36 42  1  1
 20 21  2  0
 21 22  1  0
M  CHG  2   2  -1  26  -1
M  END
>  <COMPND>  (85) 
    8629 

>  <AUTHOR>  (85) 
    GENERATED BY OPEN BABEL 3.1.1

>  <MASTER>  (85) 
        0    0    0    0    0    0    0    0   58    0   58    0

>  <minimizedAffinity>  (85) 
-7.48635

>  <CNNscore>  (85) 
0.4752343893

>  <CNNaffinity>  (85) 
4.3385286331

>  <CNN_VS>  (85) 
2.0618181229

>  <CNNaffinity_variance>  (85) 
0.5555487871

$$$$
86
     RDKit          3D

 43 45  0  0  0  0  0  0  0  0999 V2000
   22.9650   70.8484   -2.3285 P   0  0  2  0  0  0  0  0  0  0  0  0
   23.0455   71.5132   -3.8013 O   0  0  0  0  0  0  0  0  0  0  0  0
   24.2550   70.2742   -1.8210 O   0  0  0  0  0  0  0  0  0  0  0  0
   21.7287   69.8104   -2.4380 O   0  0  0  0  0  0  0  0  0  0  0  0
   20.9194   69.8430   -3.6007 C   0  0  0  0  0  0  0  0  0  0  0  0
   18.8731   70.9465   -4.2078 O   0  0  0  0  0  0  0  0  0  0  0  0
   17.5247   69.1158   -2.2530 O   0  0  0  0  0  0  0  0  0  0  0  0
   16.9665   67.9411   -4.6499 O   0  0  0  0  0  0  0  0  0  0  0  0
   18.6243   68.8541   -3.1236 C   0  0  1  0  0  0  0  0  0  0  0  0
   18.1425   68.7186   -4.5530 C   0  0  2  0  0  0  0  0  0  0  0  0
   19.4776   70.1144   -3.1937 C   0  0  1  0  0  0  0  0  0  0  0  0
   17.9193   70.1682   -4.9490 C   0  0  2  0  0  0  0  0  0  0  0  0
   16.9655   68.3249   -2.1921 H   0  0  0  0  0  0  0  0  0  0  0  0
   17.1601   67.0276   -4.3877 H   0  0  0  0  0  0  0  0  0  0  0  0
   15.8948   69.9800   -6.9095 O   0  0  0  0  0  0  0  0  0  0  0  0
   18.8276   71.0410  -10.3028 O   0  0  0  0  0  0  0  0  0  0  0  0
   18.1259   70.3906   -6.3523 N   0  0  0  0  0  0  0  0  0  0  0  0
   17.3567   70.5087   -8.5975 N   0  0  0  0  0  0  0  0  0  0  0  0
   17.0424   70.2701   -7.2535 C   0  0  0  0  0  0  0  0  0  0  0  0
   19.3915   70.7245   -6.8221 C   0  0  0  0  0  0  0  0  0  0  0  0
   19.6749   70.9475   -8.1071 C   0  0  0  0  0  0  0  0  0  0  0  0
   18.5989   70.8420   -9.1137 C   0  0  0  0  0  0  0  0  0  0  0  0
   16.6176   70.4300   -9.2436 H   0  0  0  0  0  0  0  0  0  0  0  0
   22.3579   72.0423   -1.4236 O   0  0  0  0  0  0  0  0  0  0  0  0
   21.9065   73.5449   -1.8126 P   0  0  2  0  0  0  0  0  0  0  0  0
   20.7288   73.3097   -2.8966 O   0  0  0  0  0  0  0  0  0  0  0  0
   23.0277   74.4185   -2.2961 O   0  0  0  0  0  0  0  0  0  0  0  0
   21.1476   74.0964   -0.4993 O   0  0  0  0  0  0  0  0  0  0  0  0
   21.6650   74.2821    1.8060 O   0  0  0  0  0  0  0  0  0  0  0  0
   17.8444   72.7453    2.1091 O   0  0  0  0  0  0  0  0  0  0  0  0
   18.3222   75.4982    2.7734 O   0  0  0  0  0  0  0  0  0  0  0  0
   19.6191   71.8023    0.0256 O   0  0  0  0  0  0  0  0  0  0  0  0
   18.8900   73.5332    1.5335 C   0  0  1  0  0  0  0  0  0  0  0  0
   19.3620   74.5430    2.5816 C   0  0  1  0  0  0  0  0  0  0  0  0
   20.0369   72.6137    1.1181 C   0  0  2  0  0  0  0  0  0  0  0  0
   20.6536   75.2414    2.1357 C   0  0  1  0  0  0  0  0  0  0  0  0
   21.2888   73.4076    0.7404 C   0  0  1  0  0  0  0  0  0  0  0  0
   17.1128   73.3230    2.3746 H   0  0  0  0  0  0  0  0  0  0  0  0
   17.5122   75.0442    3.0543 H   0  0  0  0  0  0  0  0  0  0  0  0
   18.8261   71.3046    0.2774 H   0  0  0  0  0  0  0  0  0  0  0  0
   20.4629   75.9519    4.4089 O   0  0  0  0  0  0  0  0  0  0  0  0
   21.2278   76.1361    3.2320 C   0  0  0  0  0  0  0  0  0  0  0  0
   20.8171   76.5150    5.1155 H   0  0  0  0  0  0  0  0  0  0  0  0
 25 28  1  0
 25 24  1  0
 25 26  1  6
 25 27  2  0
  1  4  1  0
  1 24  1  0
  1  2  1  6
  1  3  2  0
  6 11  1  0
  6 12  1  0
 29 36  1  0
 29 37  1  0
  9  7  1  1
  7 13  1  0
 10  8  1  1
  8 14  1  0
 37 28  1  6
  4  5  1  0
 33 30  1  1
 30 38  1  0
 34 31  1  6
 31 39  1  0
 35 32  1  6
 32 40  1  0
 41 42  1  0
 41 43  1  0
 15 19  2  0
 16 22  2  0
 12 17  1  6
 17 19  1  0
 17 20  1  0
 18 19  1  0
 18 22  1  0
 18 23  1  0
  9 10  1  0
  9 11  1  0
 10 12  1  0
 11  5  1  6
 33 34  1  0
 33 35  1  0
 34 36  1  0
 35 37  1  0
 36 42  1  1
 20 21  2  0
 21 22  1  0
M  CHG  2   2  -1  26  -1
M  END
>  <COMPND>  (86) 
    8629 

>  <AUTHOR>  (86) 
    GENERATED BY OPEN BABEL 3.1.1

>  <MASTER>  (86) 
        0    0    0    0    0    0    0    0   58    0   58    0

>  <minimizedAffinity>  (86) 
-7.20609

>  <CNNscore>  (86) 
0.4739481509

>  <CNNaffinity>  (86) 
4.3198423386

>  <CNN_VS>  (86) 
2.0473814011

>  <CNNaffinity_variance>  (86) 
0.0793611482

$$$$
87
     RDKit          3D

 43 45  0  0  0  0  0  0  0  0999 V2000
   20.8868   74.7325   -6.2797 P   0  0  2  0  0  0  0  0  0  0  0  0
   20.2184   75.7963   -7.2989 O   0  0  0  0  0  0  0  0  0  0  0  0
   22.3797   74.8228   -6.1585 O   0  0  0  0  0  0  0  0  0  0  0  0
   20.3070   73.3048   -6.7730 O   0  0  0  0  0  0  0  0  0  0  0  0
   18.9665   73.2401   -7.2277 C   0  0  0  0  0  0  0  0  0  0  0  0
   19.3208   70.8673   -7.0938 O   0  0  0  0  0  0  0  0  0  0  0  0
   17.1496   70.6161   -9.1465 O   0  0  0  0  0  0  0  0  0  0  0  0
   15.8498   70.0044   -6.8286 O   0  0  0  0  0  0  0  0  0  0  0  0
   17.2684   71.5419   -8.0676 C   0  0  1  0  0  0  0  0  0  0  0  0
   16.9759   70.8544   -6.7502 C   0  0  2  0  0  0  0  0  0  0  0  0
   18.7413   71.9020   -7.9183 C   0  0  1  0  0  0  0  0  0  0  0  0
   18.2665   70.0933   -6.4987 C   0  0  2  0  0  0  0  0  0  0  0  0
   16.2174   70.3715   -9.2613 H   0  0  0  0  0  0  0  0  0  0  0  0
   15.0543   70.5355   -6.9894 H   0  0  0  0  0  0  0  0  0  0  0  0
   17.1404   68.0730   -4.8775 O   0  0  0  0  0  0  0  0  0  0  0  0
   19.3930   69.5602   -1.1418 O   0  0  0  0  0  0  0  0  0  0  0  0
   18.5416   69.9290   -5.0992 N   0  0  0  0  0  0  0  0  0  0  0  0
   18.2631   68.8151   -3.0188 N   0  0  0  0  0  0  0  0  0  0  0  0
   17.9232   68.8825   -4.3760 C   0  0  0  0  0  0  0  0  0  0  0  0
   19.4161   70.7996   -4.4580 C   0  0  0  0  0  0  0  0  0  0  0  0
   19.7287   70.7225   -3.1627 C   0  0  0  0  0  0  0  0  0  0  0  0
   19.1258   69.6575   -2.3356 C   0  0  0  0  0  0  0  0  0  0  0  0
   17.8441   68.0942   -2.4948 H   0  0  0  0  0  0  0  0  0  0  0  0
   20.0830   74.9946   -4.9020 O   0  0  0  0  0  0  0  0  0  0  0  0
   20.5269   74.7983   -3.3601 P   0  0  2  0  0  0  0  0  0  0  0  0
   19.1563   74.3359   -2.6354 O   0  0  0  0  0  0  0  0  0  0  0  0
   21.1742   76.0065   -2.7475 O   0  0  0  0  0  0  0  0  0  0  0  0
   21.4511   73.4752   -3.3664 O   0  0  0  0  0  0  0  0  0  0  0  0
   22.5500   73.3302   -1.2716 O   0  0  0  0  0  0  0  0  0  0  0  0
   24.3218   70.1194   -3.1697 O   0  0  0  0  0  0  0  0  0  0  0  0
   22.3908   69.6516   -1.0959 O   0  0  0  0  0  0  0  0  0  0  0  0
   23.7672   72.5450   -4.6491 O   0  0  0  0  0  0  0  0  0  0  0  0
   23.2578   71.0216   -2.8544 C   0  0  1  0  0  0  0  0  0  0  0  0
   22.9759   70.9249   -1.3537 C   0  0  1  0  0  0  0  0  0  0  0  0
   23.6781   72.4407   -3.2322 C   0  0  2  0  0  0  0  0  0  0  0  0
   22.0366   72.0477   -0.8931 C   0  0  1  0  0  0  0  0  0  0  0  0
   22.7024   73.4836   -2.6841 C   0  0  1  0  0  0  0  0  0  0  0  0
   24.0611   69.2165   -2.9327 H   0  0  0  0  0  0  0  0  0  0  0  0
   22.9937   68.9515   -1.3919 H   0  0  0  0  0  0  0  0  0  0  0  0
   24.3881   71.8799   -4.9838 H   0  0  0  0  0  0  0  0  0  0  0  0
   20.6917   71.3487    0.9540 O   0  0  0  0  0  0  0  0  0  0  0  0
   21.8675   72.0652    0.6246 C   0  0  0  0  0  0  0  0  0  0  0  0
   20.5713   71.3512    1.9169 H   0  0  0  0  0  0  0  0  0  0  0  0
 25 28  1  0
 25 24  1  0
 25 26  1  1
 25 27  2  0
  1  4  1  0
  1 24  1  0
  1  2  1  6
  1  3  2  0
  6 11  1  0
  6 12  1  0
 29 36  1  0
 29 37  1  0
  9  7  1  6
  7 13  1  0
 10  8  1  6
  8 14  1  0
 37 28  1  6
  4  5  1  0
 33 30  1  1
 30 38  1  0
 34 31  1  6
 31 39  1  0
 35 32  1  6
 32 40  1  0
 41 42  1  0
 41 43  1  0
 15 19  2  0
 16 22  2  0
 12 17  1  1
 17 19  1  0
 17 20  1  0
 18 19  1  0
 18 22  1  0
 18 23  1  0
  9 10  1  0
  9 11  1  0
 10 12  1  0
 11  5  1  1
 33 34  1  0
 33 35  1  0
 34 36  1  0
 35 37  1  0
 36 42  1  1
 20 21  2  0
 21 22  1  0
M  CHG  2   2  -1  26  -1
M  END
>  <COMPND>  (87) 
    8629 

>  <AUTHOR>  (87) 
    GENERATED BY OPEN BABEL 3.1.1

>  <MASTER>  (87) 
        0    0    0    0    0    0    0    0   58    0   58    0

>  <minimizedAffinity>  (87) 
-7.27037

>  <CNNscore>  (87) 
0.4732420743

>  <CNNaffinity>  (87) 
4.2337265015

>  <CNN_VS>  (87) 
2.0035774708

>  <CNNaffinity_variance>  (87) 
0.5410391688

$$$$
88
     RDKit          3D

 43 45  0  0  0  0  0  0  0  0999 V2000
   22.9164   72.8437   -3.3810 P   0  0  2  0  0  0  0  0  0  0  0  0
   22.9819   74.2128   -2.5215 O   0  0  0  0  0  0  0  0  0  0  0  0
   23.6083   72.8968   -4.7113 O   0  0  0  0  0  0  0  0  0  0  0  0
   21.3388   72.4867   -3.4233 O   0  0  0  0  0  0  0  0  0  0  0  0
   20.4817   73.3027   -4.2025 C   0  0  0  0  0  0  0  0  0  0  0  0
   18.2158   73.0246   -4.9525 O   0  0  0  0  0  0  0  0  0  0  0  0
   17.6676   71.8322   -2.2565 O   0  0  0  0  0  0  0  0  0  0  0  0
   17.8903   69.6283   -3.8470 O   0  0  0  0  0  0  0  0  0  0  0  0
   18.8362   71.7283   -3.0682 C   0  0  1  0  0  0  0  0  0  0  0  0
   18.5847   70.7962   -4.2350 C   0  0  2  0  0  0  0  0  0  0  0  0
   19.0417   73.0659   -3.7682 C   0  0  1  0  0  0  0  0  0  0  0  0
   17.7730   71.6752   -5.1713 C   0  0  2  0  0  0  0  0  0  0  0  0
   17.5160   70.9898   -1.7990 H   0  0  0  0  0  0  0  0  0  0  0  0
   18.4480   69.1028   -3.2524 H   0  0  0  0  0  0  0  0  0  0  0  0
   16.2683   69.7404   -6.5750 O   0  0  0  0  0  0  0  0  0  0  0  0
   18.6325   70.4582  -10.4656 O   0  0  0  0  0  0  0  0  0  0  0  0
   17.9738   71.3366   -6.5520 N   0  0  0  0  0  0  0  0  0  0  0  0
   17.4466   70.0995   -8.5111 N   0  0  0  0  0  0  0  0  0  0  0  0
   17.1647   70.3499   -7.1621 C   0  0  0  0  0  0  0  0  0  0  0  0
   18.9637   71.9804   -7.2865 C   0  0  0  0  0  0  0  0  0  0  0  0
   19.2208   71.7291   -8.5718 C   0  0  0  0  0  0  0  0  0  0  0  0
   18.4205   70.7119   -9.2838 C   0  0  0  0  0  0  0  0  0  0  0  0
   16.8958   69.4156   -8.9569 H   0  0  0  0  0  0  0  0  0  0  0  0
   23.5106   71.7430   -2.3571 O   0  0  0  0  0  0  0  0  0  0  0  0
   22.8677   71.0632   -1.0389 P   0  0  2  0  0  0  0  0  0  0  0  0
   24.1601   70.5052   -0.2414 O   0  0  0  0  0  0  0  0  0  0  0  0
   21.8233   70.0246   -1.3293 O   0  0  0  0  0  0  0  0  0  0  0  0
   22.3463   72.3062   -0.1512 O   0  0  0  0  0  0  0  0  0  0  0  0
   22.4337   72.8328    2.1578 O   0  0  0  0  0  0  0  0  0  0  0  0
   18.5404   73.9611    1.3707 O   0  0  0  0  0  0  0  0  0  0  0  0
   20.5357   75.9756    1.8274 O   0  0  0  0  0  0  0  0  0  0  0  0
   19.6428   71.6004    0.1091 O   0  0  0  0  0  0  0  0  0  0  0  0
   19.9299   73.7854    1.0812 C   0  0  1  0  0  0  0  0  0  0  0  0
   20.7377   74.5917    2.1000 C   0  0  1  0  0  0  0  0  0  0  0  0
   20.2754   72.3004    1.1750 C   0  0  2  0  0  0  0  0  0  0  0  0
   22.2305   74.2443    2.0232 C   0  0  1  0  0  0  0  0  0  0  0  0
   21.7871   72.0688    1.1380 C   0  0  1  0  0  0  0  0  0  0  0  0
   18.3143   74.9018    1.3123 H   0  0  0  0  0  0  0  0  0  0  0  0
   19.5891   76.1816    1.8786 H   0  0  0  0  0  0  0  0  0  0  0  0
   18.6863   71.7548    0.1437 H   0  0  0  0  0  0  0  0  0  0  0  0
   23.2521   76.2697    2.7736 O   0  0  0  0  0  0  0  0  0  0  0  0
   23.0325   74.9184    3.1343 C   0  0  0  0  0  0  0  0  0  0  0  0
   23.7612   76.7114    3.4718 H   0  0  0  0  0  0  0  0  0  0  0  0
 25 28  1  0
 25 24  1  0
 25 26  1  1
 25 27  2  0
  1  4  1  0
  1 24  1  0
  1  2  1  1
  1  3  2  0
  6 11  1  0
  6 12  1  0
 29 36  1  0
 29 37  1  0
  9  7  1  1
  7 13  1  0
 10  8  1  1
  8 14  1  0
 37 28  1  6
  4  5  1  0
 33 30  1  1
 30 38  1  0
 34 31  1  6
 31 39  1  0
 35 32  1  6
 32 40  1  0
 41 42  1  0
 41 43  1  0
 15 19  2  0
 16 22  2  0
 12 17  1  6
 17 19  1  0
 17 20  1  0
 18 19  1  0
 18 22  1  0
 18 23  1  0
  9 10  1  0
  9 11  1  0
 10 12  1  0
 11  5  1  6
 33 34  1  0
 33 35  1  0
 34 36  1  0
 35 37  1  0
 36 42  1  1
 20 21  2  0
 21 22  1  0
M  CHG  2   2  -1  26  -1
M  END
>  <COMPND>  (88) 
    8629 

>  <AUTHOR>  (88) 
    GENERATED BY OPEN BABEL 3.1.1

>  <MASTER>  (88) 
        0    0    0    0    0    0    0    0   58    0   58    0

>  <minimizedAffinity>  (88) 
-6.92673

>  <CNNscore>  (88) 
0.4650686681

>  <CNNaffinity>  (88) 
4.2256288528

>  <CNN_VS>  (88) 
1.9652075768

>  <CNNaffinity_variance>  (88) 
0.0332679078

$$$$
89
     RDKit          3D

 43 45  0  0  0  0  0  0  0  0999 V2000
   22.2300   72.6465   -4.2681 P   0  0  2  0  0  0  0  0  0  0  0  0
   23.7800   72.8480   -4.6855 O   0  0  0  0  0  0  0  0  0  0  0  0
   21.6153   73.8030   -3.5359 O   0  0  0  0  0  0  0  0  0  0  0  0
   22.2201   71.2321   -3.4823 O   0  0  0  0  0  0  0  0  0  0  0  0
   23.1052   71.0598   -2.3893 C   0  0  0  0  0  0  0  0  0  0  0  0
   22.8001   70.9061   -0.0108 O   0  0  0  0  0  0  0  0  0  0  0  0
   20.2616   69.4310   -0.6201 O   0  0  0  0  0  0  0  0  0  0  0  0
   19.3650   71.9370   -0.0261 O   0  0  0  0  0  0  0  0  0  0  0  0
   20.8612   70.5214   -1.3179 C   0  0  1  0  0  0  0  0  0  0  0  0
   20.6742   71.8086   -0.5423 C   0  0  2  0  0  0  0  0  0  0  0  0
   22.3727   70.3364   -1.2675 C   0  0  1  0  0  0  0  0  0  0  0  0
   21.7223   71.6740    0.5492 C   0  0  2  0  0  0  0  0  0  0  0  0
   19.2960   69.5270   -0.6391 H   0  0  0  0  0  0  0  0  0  0  0  0
   18.7350   72.0195   -0.7590 H   0  0  0  0  0  0  0  0  0  0  0  0
   21.7817   72.5409    3.2367 O   0  0  0  0  0  0  0  0  0  0  0  0
   23.6940   76.5731    2.0854 O   0  0  0  0  0  0  0  0  0  0  0  0
   22.2307   72.9456    0.9802 N   0  0  0  0  0  0  0  0  0  0  0  0
   22.7340   74.5479    2.6613 N   0  0  0  0  0  0  0  0  0  0  0  0
   22.2139   73.2842    2.3534 C   0  0  0  0  0  0  0  0  0  0  0  0
   22.7388   73.8416    0.0459 C   0  0  0  0  0  0  0  0  0  0  0  0
   23.2299   75.0433    0.3557 C   0  0  0  0  0  0  0  0  0  0  0  0
   23.2491   75.4743    1.7685 C   0  0  0  0  0  0  0  0  0  0  0  0
   22.7322   74.8055    3.6117 H   0  0  0  0  0  0  0  0  0  0  0  0
   21.5188   72.2859   -5.6742 O   0  0  0  0  0  0  0  0  0  0  0  0
   20.0443   71.7097   -6.0011 P   0  0  2  0  0  0  0  0  0  0  0  0
   19.3169   71.7107   -4.5560 O   0  0  0  0  0  0  0  0  0  0  0  0
   20.0437   70.3777   -6.6938 O   0  0  0  0  0  0  0  0  0  0  0  0
   19.3170   72.8921   -6.8244 O   0  0  0  0  0  0  0  0  0  0  0  0
   17.1294   73.7993   -6.7343 O   0  0  0  0  0  0  0  0  0  0  0  0
   17.6743   73.7961  -10.8275 O   0  0  0  0  0  0  0  0  0  0  0  0
   17.7183   76.2838   -9.3931 O   0  0  0  0  0  0  0  0  0  0  0  0
   18.6854   71.6007   -9.2345 O   0  0  0  0  0  0  0  0  0  0  0  0
   18.0742   73.9195   -9.4599 C   0  0  1  0  0  0  0  0  0  0  0  0
   17.2698   75.0560   -8.8258 C   0  0  1  0  0  0  0  0  0  0  0  0
   17.8015   72.6006   -8.7391 C   0  0  2  0  0  0  0  0  0  0  0  0
   17.4459   75.0760   -7.3015 C   0  0  1  0  0  0  0  0  0  0  0  0
   17.9571   72.7424   -7.2239 C   0  0  1  0  0  0  0  0  0  0  0  0
   17.8453   74.6300  -11.2910 H   0  0  0  0  0  0  0  0  0  0  0  0
   17.6021   76.2580  -10.3560 H   0  0  0  0  0  0  0  0  0  0  0  0
   18.5771   71.5204  -10.1945 H   0  0  0  0  0  0  0  0  0  0  0  0
   15.3787   76.2662   -7.4389 O   0  0  0  0  0  0  0  0  0  0  0  0
   16.5310   76.1000   -6.6334 C   0  0  0  0  0  0  0  0  0  0  0  0
   14.7870   76.9151   -7.0258 H   0  0  0  0  0  0  0  0  0  0  0  0
 25 28  1  0
 25 24  1  0
 25 26  1  1
 25 27  2  0
  1  4  1  0
  1 24  1  0
  1  2  1  6
  1  3  2  0
  6 11  1  0
  6 12  1  0
 29 36  1  0
 29 37  1  0
  9  7  1  1
  7 13  1  0
 10  8  1  1
  8 14  1  0
 37 28  1  6
  4  5  1  0
 33 30  1  6
 30 38  1  0
 34 31  1  6
 31 39  1  0
 35 32  1  6
 32 40  1  0
 41 42  1  0
 41 43  1  0
 15 19  2  0
 16 22  2  0
 12 17  1  6
 17 19  1  0
 17 20  1  0
 18 19  1  0
 18 22  1  0
 18 23  1  0
  9 10  1  0
  9 11  1  0
 10 12  1  0
 11  5  1  6
 33 34  1  0
 33 35  1  0
 34 36  1  0
 35 37  1  0
 36 42  1  1
 20 21  2  0
 21 22  1  0
M  CHG  2   2  -1  26  -1
M  END
>  <COMPND>  (89) 
    8629 

>  <AUTHOR>  (89) 
    GENERATED BY OPEN BABEL 3.1.1

>  <MASTER>  (89) 
        0    0    0    0    0    0    0    0   58    0   58    0

>  <minimizedAffinity>  (89) 
-7.37956

>  <CNNscore>  (89) 
0.4229535162

>  <CNNaffinity>  (89) 
4.0269036293

>  <CNN_VS>  (89) 
1.7031930685

>  <CNNaffinity_variance>  (89) 
0.1207409352

$$$$
90
     RDKit          3D

 43 45  0  0  0  0  0  0  0  0999 V2000
   22.4197   75.6473   -5.2845 P   0  0  2  0  0  0  0  0  0  0  0  0
   23.8099   75.4204   -6.0803 O   0  0  0  0  0  0  0  0  0  0  0  0
   21.8589   77.0363   -5.3717 O   0  0  0  0  0  0  0  0  0  0  0  0
   22.7344   75.1091   -3.7915 O   0  0  0  0  0  0  0  0  0  0  0  0
   22.7812   76.0471   -2.7305 C   0  0  0  0  0  0  0  0  0  0  0  0
   21.1512   74.6000   -1.7191 O   0  0  0  0  0  0  0  0  0  0  0  0
   20.2288   77.0128   -0.1964 O   0  0  0  0  0  0  0  0  0  0  0  0
   21.7458   75.6919    1.6450 O   0  0  0  0  0  0  0  0  0  0  0  0
   21.5506   76.6419   -0.5846 C   0  0  1  0  0  0  0  0  0  0  0  0
   22.0519   75.5028    0.2785 C   0  0  2  0  0  0  0  0  0  0  0  0
   21.4702   75.9883   -1.9585 C   0  0  1  0  0  0  0  0  0  0  0  0
   21.3287   74.3098   -0.3230 C   0  0  2  0  0  0  0  0  0  0  0  0
   20.2547   77.4327    0.6782 H   0  0  0  0  0  0  0  0  0  0  0  0
   22.2299   76.4621    1.9813 H   0  0  0  0  0  0  0  0  0  0  0  0
   21.3895   72.7180    2.0094 O   0  0  0  0  0  0  0  0  0  0  0  0
   24.2381   69.6589    0.0682 O   0  0  0  0  0  0  0  0  0  0  0  0
   22.0776   73.0920   -0.1914 N   0  0  0  0  0  0  0  0  0  0  0  0
   22.8077   71.1960    1.0409 N   0  0  0  0  0  0  0  0  0  0  0  0
   22.0411   72.3682    1.0232 C   0  0  0  0  0  0  0  0  0  0  0  0
   22.8372   72.6267   -1.2593 C   0  0  0  0  0  0  0  0  0  0  0  0
   23.5637   71.5077   -1.2259 C   0  0  0  0  0  0  0  0  0  0  0  0
   23.5800   70.6927    0.0060 C   0  0  0  0  0  0  0  0  0  0  0  0
   22.7978   70.6755    1.8768 H   0  0  0  0  0  0  0  0  0  0  0  0
   21.4613   74.4956   -5.8914 O   0  0  0  0  0  0  0  0  0  0  0  0
   21.7201   72.9188   -6.1352 P   0  0  2  0  0  0  0  0  0  0  0  0
   21.6755   72.3000   -4.6410 O   0  0  0  0  0  0  0  0  0  0  0  0
   22.9780   72.6119   -6.8952 O   0  0  0  0  0  0  0  0  0  0  0  0
   20.3678   72.3866   -6.8373 O   0  0  0  0  0  0  0  0  0  0  0  0
   19.1734   70.4709   -6.1161 O   0  0  0  0  0  0  0  0  0  0  0  0
   18.0686   70.4780  -10.0948 O   0  0  0  0  0  0  0  0  0  0  0  0
   16.1545   71.2307   -8.0903 O   0  0  0  0  0  0  0  0  0  0  0  0
   20.7714   71.1944   -9.3454 O   0  0  0  0  0  0  0  0  0  0  0  0
   18.4201   71.0654   -8.8391 C   0  0  1  0  0  0  0  0  0  0  0  0
   17.4012   70.6078   -7.7936 C   0  0  1  0  0  0  0  0  0  0  0  0
   19.8271   70.6130   -8.4528 C   0  0  2  0  0  0  0  0  0  0  0  0
   17.8586   70.9764   -6.3758 C   0  0  1  0  0  0  0  0  0  0  0  0
   20.1637   70.9864   -7.0080 C   0  0  1  0  0  0  0  0  0  0  0  0
   17.1765   70.7617  -10.3461 H   0  0  0  0  0  0  0  0  0  0  0  0
   15.8772   70.9902   -8.9884 H   0  0  0  0  0  0  0  0  0  0  0  0
   20.5475   70.9503  -10.2566 H   0  0  0  0  0  0  0  0  0  0  0  0
   15.9486   69.6061   -5.9476 O   0  0  0  0  0  0  0  0  0  0  0  0
   16.9370   70.3921   -5.3075 C   0  0  0  0  0  0  0  0  0  0  0  0
   15.3549   69.2275   -5.2799 H   0  0  0  0  0  0  0  0  0  0  0  0
 25 28  1  0
 25 24  1  0
 25 26  1  1
 25 27  2  0
  1  4  1  0
  1 24  1  0
  1  2  1  6
  1  3  2  0
  6 11  1  0
  6 12  1  0
 29 36  1  0
 29 37  1  0
  9  7  1  1
  7 13  1  0
 10  8  1  1
  8 14  1  0
 37 28  1  6
  4  5  1  0
 33 30  1  6
 30 38  1  0
 34 31  1  6
 31 39  1  0
 35 32  1  6
 32 40  1  0
 41 42  1  0
 41 43  1  0
 15 19  2  0
 16 22  2  0
 12 17  1  6
 17 19  1  0
 17 20  1  0
 18 19  1  0
 18 22  1  0
 18 23  1  0
  9 10  1  0
  9 11  1  0
 10 12  1  0
 11  5  1  1
 33 34  1  0
 33 35  1  0
 34 36  1  0
 35 37  1  0
 36 42  1  1
 20 21  2  0
 21 22  1  0
M  CHG  2   2  -1  26  -1
M  END
>  <COMPND>  (90) 
    8629 

>  <AUTHOR>  (90) 
    GENERATED BY OPEN BABEL 3.1.1

>  <MASTER>  (90) 
        0    0    0    0    0    0    0    0   58    0   58    0

>  <minimizedAffinity>  (90) 
-7.53273

>  <CNNscore>  (90) 
0.4080684483

>  <CNNaffinity>  (90) 
4.3230338097

>  <CNN_VS>  (90) 
1.7640937567

>  <CNNaffinity_variance>  (90) 
0.1777512729

$$$$
91
     RDKit          3D

 43 45  0  0  0  0  0  0  0  0999 V2000
   19.4500   70.0008   -2.2280 P   0  0  2  0  0  0  0  0  0  0  0  0
   19.8950   69.3690   -0.8067 O   0  0  0  0  0  0  0  0  0  0  0  0
   20.5754   70.2642   -3.1848 O   0  0  0  0  0  0  0  0  0  0  0  0
   18.5595   71.2883   -1.8190 O   0  0  0  0  0  0  0  0  0  0  0  0
   18.9156   72.5529   -2.3500 C   0  0  0  0  0  0  0  0  0  0  0  0
   20.2582   72.7639   -0.3684 O   0  0  0  0  0  0  0  0  0  0  0  0
   19.8961   75.7256   -0.6646 O   0  0  0  0  0  0  0  0  0  0  0  0
   22.4024   75.3304   -1.6640 O   0  0  0  0  0  0  0  0  0  0  0  0
   20.0465   74.7296   -1.6748 C   0  0  1  0  0  0  0  0  0  0  0  0
   21.4844   74.2587   -1.7390 C   0  0  2  0  0  0  0  0  0  0  0  0
   19.3211   73.4739   -1.2075 C   0  0  1  0  0  0  0  0  0  0  0  0
   21.5668   73.3331   -0.5371 C   0  0  2  0  0  0  0  0  0  0  0  0
   20.3509   76.5373   -0.9407 H   0  0  0  0  0  0  0  0  0  0  0  0
   22.3111   75.8901   -2.4508 H   0  0  0  0  0  0  0  0  0  0  0  0
   22.4682   71.6129    1.5138 O   0  0  0  0  0  0  0  0  0  0  0  0
   25.2102   69.3001   -1.3799 O   0  0  0  0  0  0  0  0  0  0  0  0
   22.5157   72.2725   -0.7267 N   0  0  0  0  0  0  0  0  0  0  0  0
   23.8326   70.4626    0.0713 N   0  0  0  0  0  0  0  0  0  0  0  0
   22.9027   71.4668    0.3695 C   0  0  0  0  0  0  0  0  0  0  0  0
   23.0521   72.0397   -1.9885 C   0  0  0  0  0  0  0  0  0  0  0  0
   23.9389   71.0789   -2.2560 C   0  0  0  0  0  0  0  0  0  0  0  0
   24.3956   70.1927   -1.1660 C   0  0  0  0  0  0  0  0  0  0  0  0
   24.1172   69.8891    0.8195 H   0  0  0  0  0  0  0  0  0  0  0  0
   18.3445   68.9496   -2.7629 O   0  0  0  0  0  0  0  0  0  0  0  0
   17.4436   68.9475   -4.1050 P   0  0  2  0  0  0  0  0  0  0  0  0
   16.2458   69.9753   -3.7494 O   0  0  0  0  0  0  0  0  0  0  0  0
   16.9830   67.5847   -4.5348 O   0  0  0  0  0  0  0  0  0  0  0  0
   18.3384   69.7270   -5.1989 O   0  0  0  0  0  0  0  0  0  0  0  0
   19.0659   71.9441   -5.6131 O   0  0  0  0  0  0  0  0  0  0  0  0
   17.6150   71.0140   -9.3655 O   0  0  0  0  0  0  0  0  0  0  0  0
   20.4504   71.1947   -8.9463 O   0  0  0  0  0  0  0  0  0  0  0  0
   16.2211   70.0810   -7.0062 O   0  0  0  0  0  0  0  0  0  0  0  0
   18.2530   70.7502   -8.1129 C   0  0  1  0  0  0  0  0  0  0  0  0
   19.4848   71.6509   -8.0031 C   0  0  1  0  0  0  0  0  0  0  0  0
   17.2702   71.0428   -6.9808 C   0  0  2  0  0  0  0  0  0  0  0  0
   20.0682   71.6209   -6.5840 C   0  0  1  0  0  0  0  0  0  0  0  0
   17.9621   71.0367   -5.6165 C   0  0  1  0  0  0  0  0  0  0  0  0
   18.2336   70.8297  -10.0886 H   0  0  0  0  0  0  0  0  0  0  0  0
   20.0693   71.2182   -9.8381 H   0  0  0  0  0  0  0  0  0  0  0  0
   15.7908   70.0949   -7.8749 H   0  0  0  0  0  0  0  0  0  0  0  0
   22.2772   72.2475   -7.2449 O   0  0  0  0  0  0  0  0  0  0  0  0
   21.2003   72.6308   -6.4096 C   0  0  0  0  0  0  0  0  0  0  0  0
   23.0050   72.8815   -7.1446 H   0  0  0  0  0  0  0  0  0  0  0  0
 25 28  1  0
 25 24  1  0
 25 26  1  1
 25 27  2  0
  1  4  1  0
  1 24  1  0
  1  2  1  1
  1  3  2  0
  6 11  1  0
  6 12  1  0
 29 36  1  0
 29 37  1  0
  9  7  1  1
  7 13  1  0
 10  8  1  1
  8 14  1  0
 37 28  1  6
  4  5  1  0
 33 30  1  6
 30 38  1  0
 34 31  1  6
 31 39  1  0
 35 32  1  1
 32 40  1  0
 41 42  1  0
 41 43  1  0
 15 19  2  0
 16 22  2  0
 12 17  1  6
 17 19  1  0
 17 20  1  0
 18 19  1  0
 18 22  1  0
 18 23  1  0
  9 10  1  0
  9 11  1  0
 10 12  1  0
 11  5  1  6
 33 34  1  0
 33 35  1  0
 34 36  1  0
 35 37  1  0
 36 42  1  6
 20 21  2  0
 21 22  1  0
M  CHG  2   2  -1  26  -1
M  END
>  <COMPND>  (91) 
    8629 

>  <AUTHOR>  (91) 
    GENERATED BY OPEN BABEL 3.1.1

>  <MASTER>  (91) 
        0    0    0    0    0    0    0    0   58    0   58    0

>  <minimizedAffinity>  (91) 
-8.28601

>  <CNNscore>  (91) 
0.4067095816

>  <CNNaffinity>  (91) 
4.2138328552

>  <CNN_VS>  (91) 
1.7138061523

>  <CNNaffinity_variance>  (91) 
0.4008935094

$$$$
92
     RDKit          3D

 43 45  0  0  0  0  0  0  0  0999 V2000
   21.2824   75.2061   -2.4699 P   0  0  2  0  0  0  0  0  0  0  0  0
   22.6751   75.0413   -1.6633 O   0  0  0  0  0  0  0  0  0  0  0  0
   21.2930   76.2522   -3.5456 O   0  0  0  0  0  0  0  0  0  0  0  0
   20.1796   75.4090   -1.3035 O   0  0  0  0  0  0  0  0  0  0  0  0
   20.6288   75.5742    0.0303 C   0  0  0  0  0  0  0  0  0  0  0  0
   19.7944   73.3310    0.2435 O   0  0  0  0  0  0  0  0  0  0  0  0
   19.6328   73.8708    3.1886 O   0  0  0  0  0  0  0  0  0  0  0  0
   21.9296   72.4162    2.9761 O   0  0  0  0  0  0  0  0  0  0  0  0
   20.6023   74.3163    2.2416 C   0  0  1  0  0  0  0  0  0  0  0  0
   21.5236   73.1774    1.8569 C   0  0  2  0  0  0  0  0  0  0  0  0
   19.8813   74.5992    0.9295 C   0  0  1  0  0  0  0  0  0  0  0  0
   20.6580   72.3838    0.8930 C   0  0  2  0  0  0  0  0  0  0  0  0
   20.0696   73.6841    4.0349 H   0  0  0  0  0  0  0  0  0  0  0  0
   22.4775   72.9649    3.5588 H   0  0  0  0  0  0  0  0  0  0  0  0
   19.6751   70.3003   -0.7412 O   0  0  0  0  0  0  0  0  0  0  0  0
   23.7230   69.8324   -2.8946 O   0  0  0  0  0  0  0  0  0  0  0  0
   21.4332   71.7000   -0.1034 N   0  0  0  0  0  0  0  0  0  0  0  0
   21.6913   70.0692   -1.8122 N   0  0  0  0  0  0  0  0  0  0  0  0
   20.8449   70.6670   -0.8698 C   0  0  0  0  0  0  0  0  0  0  0  0
   22.7613   72.0555   -0.3126 C   0  0  0  0  0  0  0  0  0  0  0  0
   23.5553   71.4746   -1.2144 C   0  0  0  0  0  0  0  0  0  0  0  0
   23.0181   70.3864   -2.0566 C   0  0  0  0  0  0  0  0  0  0  0  0
   21.3033   69.3468   -2.3575 H   0  0  0  0  0  0  0  0  0  0  0  0
   20.9858   73.7058   -2.9934 O   0  0  0  0  0  0  0  0  0  0  0  0
   20.7290   73.1325   -4.4828 P   0  0  2  0  0  0  0  0  0  0  0  0
   22.0827   72.3055   -4.8005 O   0  0  0  0  0  0  0  0  0  0  0  0
   20.3942   74.1862   -5.4985 O   0  0  0  0  0  0  0  0  0  0  0  0
   19.5943   72.0003   -4.2947 O   0  0  0  0  0  0  0  0  0  0  0  0
   19.2274   69.6879   -3.9275 O   0  0  0  0  0  0  0  0  0  0  0  0
   17.5355   70.0370   -7.6780 O   0  0  0  0  0  0  0  0  0  0  0  0
   15.8420   69.6793   -5.3862 O   0  0  0  0  0  0  0  0  0  0  0  0
   19.9416   71.5128   -7.0364 O   0  0  0  0  0  0  0  0  0  0  0  0
   17.8798   70.4684   -6.3586 C   0  0  1  0  0  0  0  0  0  0  0  0
   17.2546   69.4951   -5.3574 C   0  0  1  0  0  0  0  0  0  0  0  0
   19.4008   70.4808   -6.2186 C   0  0  2  0  0  0  0  0  0  0  0  0
   17.7958   69.7335   -3.9413 C   0  0  1  0  0  0  0  0  0  0  0  0
   19.8325   70.6758   -4.7640 C   0  0  1  0  0  0  0  0  0  0  0  0
   16.5710   70.0274   -7.7737 H   0  0  0  0  0  0  0  0  0  0  0  0
   15.5131   69.5263   -6.2860 H   0  0  0  0  0  0  0  0  0  0  0  0
   19.6614   71.3779   -7.9546 H   0  0  0  0  0  0  0  0  0  0  0  0
   16.8038   67.5742   -3.6919 O   0  0  0  0  0  0  0  0  0  0  0  0
   17.3063   68.6743   -2.9561 C   0  0  0  0  0  0  0  0  0  0  0  0
   16.4890   66.8919   -3.0778 H   0  0  0  0  0  0  0  0  0  0  0  0
 25 28  1  0
 25 24  1  0
 25 26  1  6
 25 27  2  0
  1  4  1  0
  1 24  1  0
  1  2  1  1
  1  3  2  0
  6 11  1  0
  6 12  1  0
 29 36  1  0
 29 37  1  0
  9  7  1  1
  7 13  1  0
 10  8  1  1
  8 14  1  0
 37 28  1  1
  4  5  1  0
 33 30  1  6
 30 38  1  0
 34 31  1  1
 31 39  1  0
 35 32  1  6
 32 40  1  0
 41 42  1  0
 41 43  1  0
 15 19  2  0
 16 22  2  0
 12 17  1  6
 17 19  1  0
 17 20  1  0
 18 19  1  0
 18 22  1  0
 18 23  1  0
  9 10  1  0
  9 11  1  0
 10 12  1  0
 11  5  1  6
 33 34  1  0
 33 35  1  0
 34 36  1  0
 35 37  1  0
 36 42  1  1
 20 21  2  0
 21 22  1  0
M  CHG  2   2  -1  26  -1
M  END
>  <COMPND>  (92) 
    8629 

>  <AUTHOR>  (92) 
    GENERATED BY OPEN BABEL 3.1.1

>  <MASTER>  (92) 
        0    0    0    0    0    0    0    0   58    0   58    0

>  <minimizedAffinity>  (92) 
-7.45343

>  <CNNscore>  (92) 
0.3987732232

>  <CNNaffinity>  (92) 
3.8991572857

>  <CNN_VS>  (92) 
1.5548795462

>  <CNNaffinity_variance>  (92) 
1.0076181889

$$$$
93
     RDKit          3D

 43 45  0  0  0  0  0  0  0  0999 V2000
   20.3658   75.9584   -2.3119 P   0  0  2  0  0  0  0  0  0  0  0  0
   21.5900   76.0538   -3.3653 O   0  0  0  0  0  0  0  0  0  0  0  0
   19.7210   77.2692   -1.9692 O   0  0  0  0  0  0  0  0  0  0  0  0
   20.9887   75.1349   -1.0662 O   0  0  0  0  0  0  0  0  0  0  0  0
   20.8305   75.6620    0.2396 C   0  0  0  0  0  0  0  0  0  0  0  0
   19.9292   73.4376    0.3573 O   0  0  0  0  0  0  0  0  0  0  0  0
   19.5687   73.9403    3.2912 O   0  0  0  0  0  0  0  0  0  0  0  0
   21.8393   72.4316    3.2213 O   0  0  0  0  0  0  0  0  0  0  0  0
   20.6144   74.3744    2.4233 C   0  0  1  0  0  0  0  0  0  0  0  0
   21.5334   73.2183    2.0880 C   0  0  2  0  0  0  0  0  0  0  0  0
   19.9969   74.6935    1.0675 C   0  0  1  0  0  0  0  0  0  0  0  0
   20.7207   72.4601    1.0521 C   0  0  2  0  0  0  0  0  0  0  0  0
   19.9388   73.7310    4.1637 H   0  0  0  0  0  0  0  0  0  0  0  0
   22.3567   72.9582    3.8504 H   0  0  0  0  0  0  0  0  0  0  0  0
   19.9017   70.2067   -0.4409 O   0  0  0  0  0  0  0  0  0  0  0  0
   23.9840   69.8969   -2.5577 O   0  0  0  0  0  0  0  0  0  0  0  0
   21.5491   71.7709    0.1033 N   0  0  0  0  0  0  0  0  0  0  0  0
   21.9350   70.0544   -1.4938 N   0  0  0  0  0  0  0  0  0  0  0  0
   21.0422   70.6492   -0.5932 C   0  0  0  0  0  0  0  0  0  0  0  0
   22.8485   72.2086   -0.1287 C   0  0  0  0  0  0  0  0  0  0  0  0
   23.6877   71.6296   -0.9899 C   0  0  0  0  0  0  0  0  0  0  0  0
   23.2361   70.4516   -1.7584 C   0  0  0  0  0  0  0  0  0  0  0  0
   21.6038   69.2710   -1.9902 H   0  0  0  0  0  0  0  0  0  0  0  0
   19.3764   74.8817   -3.0008 O   0  0  0  0  0  0  0  0  0  0  0  0
   17.8072   74.5765   -2.7611 P   0  0  2  0  0  0  0  0  0  0  0  0
   17.0694   75.6623   -3.7067 O   0  0  0  0  0  0  0  0  0  0  0  0
   17.3847   74.6207   -1.3212 O   0  0  0  0  0  0  0  0  0  0  0  0
   17.5505   73.1597   -3.4903 O   0  0  0  0  0  0  0  0  0  0  0  0
   17.3791   70.9218   -2.7293 O   0  0  0  0  0  0  0  0  0  0  0  0
   19.7029   70.3011   -6.0857 O   0  0  0  0  0  0  0  0  0  0  0  0
   16.9493   69.4851   -6.0968 O   0  0  0  0  0  0  0  0  0  0  0  0
   20.1401   72.6416   -4.4394 O   0  0  0  0  0  0  0  0  0  0  0  0
   18.6829   70.9304   -5.3053 C   0  0  1  0  0  0  0  0  0  0  0  0
   17.6518   69.8686   -4.9179 C   0  0  1  0  0  0  0  0  0  0  0  0
   19.3162   71.5450   -4.0584 C   0  0  2  0  0  0  0  0  0  0  0  0
   16.6738   70.4048   -3.8637 C   0  0  1  0  0  0  0  0  0  0  0  0
   18.2571   72.0016   -3.0535 C   0  0  1  0  0  0  0  0  0  0  0  0
   19.3075   69.9093   -6.8792 H   0  0  0  0  0  0  0  0  0  0  0  0
   17.5783   69.1489   -6.7544 H   0  0  0  0  0  0  0  0  0  0  0  0
   20.8066   72.3396   -5.0754 H   0  0  0  0  0  0  0  0  0  0  0  0
   14.4009   69.7221   -3.5868 O   0  0  0  0  0  0  0  0  0  0  0  0
   15.7358   69.3158   -3.3475 C   0  0  0  0  0  0  0  0  0  0  0  0
   13.7927   69.0385   -3.2636 H   0  0  0  0  0  0  0  0  0  0  0  0
 25 28  1  0
 25 24  1  0
 25 26  1  6
 25 27  2  0
  1  4  1  0
  1 24  1  0
  1  2  1  6
  1  3  2  0
  6 11  1  0
  6 12  1  0
 29 36  1  0
 29 37  1  0
  9  7  1  1
  7 13  1  0
 10  8  1  1
  8 14  1  0
 37 28  1  6
  4  5  1  0
 33 30  1  6
 30 38  1  0
 34 31  1  6
 31 39  1  0
 35 32  1  6
 32 40  1  0
 41 42  1  0
 41 43  1  0
 15 19  2  0
 16 22  2  0
 12 17  1  6
 17 19  1  0
 17 20  1  0
 18 19  1  0
 18 22  1  0
 18 23  1  0
  9 10  1  0
  9 11  1  0
 10 12  1  0
 11  5  1  6
 33 34  1  0
 33 35  1  0
 34 36  1  0
 35 37  1  0
 36 42  1  1
 20 21  2  0
 21 22  1  0
M  CHG  2   2  -1  26  -1
M  END
>  <COMPND>  (93) 
    8629 

>  <AUTHOR>  (93) 
    GENERATED BY OPEN BABEL 3.1.1

>  <MASTER>  (93) 
        0    0    0    0    0    0    0    0   58    0   58    0

>  <minimizedAffinity>  (93) 
-6.70453

>  <CNNscore>  (93) 
0.3845750391

>  <CNNaffinity>  (93) 
3.8639111519

>  <CNN_VS>  (93) 
1.4859638214

>  <CNNaffinity_variance>  (93) 
0.9850487709

$$$$
94
     RDKit          3D

 43 45  0  0  0  0  0  0  0  0999 V2000
   17.7321   74.4546   -3.7874 P   0  0  2  0  0  0  0  0  0  0  0  0
   17.4824   72.8646   -3.6229 O   0  0  0  0  0  0  0  0  0  0  0  0
   16.5162   75.3110   -3.5883 O   0  0  0  0  0  0  0  0  0  0  0  0
   18.4565   74.5870   -5.2281 O   0  0  0  0  0  0  0  0  0  0  0  0
   17.7638   74.1323   -6.3775 C   0  0  0  0  0  0  0  0  0  0  0  0
   19.2210   72.2224   -6.4302 O   0  0  0  0  0  0  0  0  0  0  0  0
   19.0331   72.3960   -9.4177 O   0  0  0  0  0  0  0  0  0  0  0  0
   17.2989   70.3754   -8.8296 O   0  0  0  0  0  0  0  0  0  0  0  0
   18.0338   72.6590   -8.4341 C   0  0  1  0  0  0  0  0  0  0  0  0
   17.5239   71.3614   -7.8427 C   0  0  2  0  0  0  0  0  0  0  0  0
   18.7143   73.3089   -7.2359 C   0  0  1  0  0  0  0  0  0  0  0  0
   18.6453   70.9880   -6.8882 C   0  0  2  0  0  0  0  0  0  0  0  0
   18.6223   71.9811  -10.1929 H   0  0  0  0  0  0  0  0  0  0  0  0
   16.5768   70.6591   -9.4117 H   0  0  0  0  0  0  0  0  0  0  0  0
   20.3233   69.7604   -4.9763 O   0  0  0  0  0  0  0  0  0  0  0  0
   16.7274   68.1585   -2.5794 O   0  0  0  0  0  0  0  0  0  0  0  0
   18.1743   70.2441   -5.7541 N   0  0  0  0  0  0  0  0  0  0  0  0
   18.5314   68.9639   -3.7843 N   0  0  0  0  0  0  0  0  0  0  0  0
   19.1002   69.6666   -4.8543 C   0  0  0  0  0  0  0  0  0  0  0  0
   16.8080   70.0935   -5.5430 C   0  0  0  0  0  0  0  0  0  0  0  0
   16.2818   69.4193   -4.5184 C   0  0  0  0  0  0  0  0  0  0  0  0
   17.1804   68.7853   -3.5322 C   0  0  0  0  0  0  0  0  0  0  0  0
   19.1572   68.5527   -3.1447 H   0  0  0  0  0  0  0  0  0  0  0  0
   18.9357   74.7429   -2.7476 O   0  0  0  0  0  0  0  0  0  0  0  0
   20.4577   74.1997   -2.7084 P   0  0  2  0  0  0  0  0  0  0  0  0
   21.3246   75.4926   -3.1494 O   0  0  0  0  0  0  0  0  0  0  0  0
   20.6968   72.9782   -3.5478 O   0  0  0  0  0  0  0  0  0  0  0  0
   20.7824   74.0071   -1.1392 O   0  0  0  0  0  0  0  0  0  0  0  0
   22.1861   75.0556    0.4567 O   0  0  0  0  0  0  0  0  0  0  0  0
   23.0573   71.1091    1.3034 O   0  0  0  0  0  0  0  0  0  0  0  0
   21.4611   72.6345    3.1402 O   0  0  0  0  0  0  0  0  0  0  0  0
   22.6604   71.9437   -1.4398 O   0  0  0  0  0  0  0  0  0  0  0  0
   22.2250   72.2052    0.9146 C   0  0  1  0  0  0  0  0  0  0  0  0
   22.1931   73.2145    2.0640 C   0  0  1  0  0  0  0  0  0  0  0  0
   22.8002   72.8456   -0.3473 C   0  0  2  0  0  0  0  0  0  0  0  0
   21.5430   74.5335    1.6252 C   0  0  1  0  0  0  0  0  0  0  0  0
   22.1166   74.1761   -0.6674 C   0  0  1  0  0  0  0  0  0  0  0  0
   22.6973   70.6978    2.1039 H   0  0  0  0  0  0  0  0  0  0  0  0
   21.8817   71.8021    3.4074 H   0  0  0  0  0  0  0  0  0  0  0  0
   23.0975   71.1055   -1.2249 H   0  0  0  0  0  0  0  0  0  0  0  0
   20.6540   75.3504    3.6871 O   0  0  0  0  0  0  0  0  0  0  0  0
   21.6421   75.6075    2.7064 C   0  0  0  0  0  0  0  0  0  0  0  0
   20.7054   76.0260    4.3819 H   0  0  0  0  0  0  0  0  0  0  0  0
 25 28  1  0
 25 24  1  0
 25 26  1  6
 25 27  2  0
  1  4  1  0
  1 24  1  0
  1  2  1  1
  1  3  2  0
  6 11  1  0
  6 12  1  0
 29 36  1  0
 29 37  1  0
  9  7  1  6
  7 13  1  0
 10  8  1  6
  8 14  1  0
 37 28  1  1
  4  5  1  0
 33 30  1  1
 30 38  1  0
 34 31  1  1
 31 39  1  0
 35 32  1  6
 32 40  1  0
 41 42  1  0
 41 43  1  0
 15 19  2  0
 16 22  2  0
 12 17  1  1
 17 19  1  0
 17 20  1  0
 18 19  1  0
 18 22  1  0
 18 23  1  0
  9 10  1  0
  9 11  1  0
 10 12  1  0
 11  5  1  1
 33 34  1  0
 33 35  1  0
 34 36  1  0
 35 37  1  0
 36 42  1  1
 20 21  2  0
 21 22  1  0
M  CHG  2   2  -1  26  -1
M  END
>  <COMPND>  (94) 
    8629 

>  <AUTHOR>  (94) 
    GENERATED BY OPEN BABEL 3.1.1

>  <MASTER>  (94) 
        0    0    0    0    0    0    0    0   58    0   58    0

>  <minimizedAffinity>  (94) 
-6.84641

>  <CNNscore>  (94) 
0.3759357333

>  <CNNaffinity>  (94) 
4.0906858444

>  <CNN_VS>  (94) 
1.5378350019

>  <CNNaffinity_variance>  (94) 
0.2434954941

$$$$
95
     RDKit          3D

 43 45  0  0  0  0  0  0  0  0999 V2000
   18.6929   72.2187   -1.7637 P   0  0  2  0  0  0  0  0  0  0  0  0
   19.1507   73.7704   -1.7507 O   0  0  0  0  0  0  0  0  0  0  0  0
   17.2622   71.9833   -2.1498 O   0  0  0  0  0  0  0  0  0  0  0  0
   19.1252   71.6740   -0.3028 O   0  0  0  0  0  0  0  0  0  0  0  0
   19.3680   72.6176    0.7260 C   0  0  0  0  0  0  0  0  0  0  0  0
   21.5169   71.5559    0.5563 O   0  0  0  0  0  0  0  0  0  0  0  0
   22.1927   72.9339    3.1322 O   0  0  0  0  0  0  0  0  0  0  0  0
   23.4276   74.5045    1.2762 O   0  0  0  0  0  0  0  0  0  0  0  0
   21.4011   73.3997    2.0405 C   0  0  1  0  0  0  0  0  0  0  0  0
   22.2872   73.7750    0.8711 C   0  0  2  0  0  0  0  0  0  0  0  0
   20.6251   72.2127    1.4836 C   0  0  1  0  0  0  0  0  0  0  0  0
   22.6384   72.4148    0.2926 C   0  0  2  0  0  0  0  0  0  0  0  0
   22.6973   73.6746    3.5047 H   0  0  0  0  0  0  0  0  0  0  0  0
   23.1520   75.3616    1.6369 H   0  0  0  0  0  0  0  0  0  0  0  0
   23.9874   70.4162   -1.1784 O   0  0  0  0  0  0  0  0  0  0  0  0
   23.4501   72.7109   -5.1390 O   0  0  0  0  0  0  0  0  0  0  0  0
   22.8648   72.4641   -1.1243 N   0  0  0  0  0  0  0  0  0  0  0  0
   23.7186   71.5603   -3.1493 N   0  0  0  0  0  0  0  0  0  0  0  0
   23.5541   71.4092   -1.7665 C   0  0  0  0  0  0  0  0  0  0  0  0
   22.4053   73.5496   -1.8622 C   0  0  0  0  0  0  0  0  0  0  0  0
   22.5714   73.6793   -3.1800 C   0  0  0  0  0  0  0  0  0  0  0  0
   23.2813   72.6209   -3.9269 C   0  0  0  0  0  0  0  0  0  0  0  0
   24.1963   70.8378   -3.6179 H   0  0  0  0  0  0  0  0  0  0  0  0
   19.7767   71.5282   -2.7443 O   0  0  0  0  0  0  0  0  0  0  0  0
   19.9499   69.9937   -3.2221 P   0  0  2  0  0  0  0  0  0  0  0  0
   18.9440   69.1854   -2.2463 O   0  0  0  0  0  0  0  0  0  0  0  0
   21.3669   69.4981   -3.1987 O   0  0  0  0  0  0  0  0  0  0  0  0
   19.2449   69.9356   -4.6729 O   0  0  0  0  0  0  0  0  0  0  0  0
   19.6691   71.4752   -6.4240 O   0  0  0  0  0  0  0  0  0  0  0  0
   15.8108   70.3913   -7.4187 O   0  0  0  0  0  0  0  0  0  0  0  0
   18.0040   69.4544   -9.0187 O   0  0  0  0  0  0  0  0  0  0  0  0
   16.5488   70.7134   -4.6382 O   0  0  0  0  0  0  0  0  0  0  0  0
   17.1331   70.1852   -6.9143 C   0  0  1  0  0  0  0  0  0  0  0  0
   18.1270   70.4817   -8.0391 C   0  0  1  0  0  0  0  0  0  0  0  0
   17.3670   71.1207   -5.7296 C   0  0  2  0  0  0  0  0  0  0  0  0
   19.5648   70.5425   -7.5061 C   0  0  1  0  0  0  0  0  0  0  0  0
   18.8378   71.1438   -5.3099 C   0  0  1  0  0  0  0  0  0  0  0  0
   15.6557   69.7999   -8.1708 H   0  0  0  0  0  0  0  0  0  0  0  0
   17.0914   69.4264   -9.3467 H   0  0  0  0  0  0  0  0  0  0  0  0
   15.6202   70.7032   -4.9165 H   0  0  0  0  0  0  0  0  0  0  0  0
   21.2196   69.8487   -9.0839 O   0  0  0  0  0  0  0  0  0  0  0  0
   20.5541   70.9918   -8.5792 C   0  0  0  0  0  0  0  0  0  0  0  0
   21.8522   70.1194   -9.7681 H   0  0  0  0  0  0  0  0  0  0  0  0
 25 28  1  0
 25 24  1  0
 25 26  1  1
 25 27  2  0
  1  4  1  0
  1 24  1  0
  1  2  1  1
  1  3  2  0
  6 11  1  0
  6 12  1  0
 29 36  1  0
 29 37  1  0
  9  7  1  1
  7 13  1  0
 10  8  1  1
  8 14  1  0
 37 28  1  6
  4  5  1  0
 33 30  1  6
 30 38  1  0
 34 31  1  6
 31 39  1  0
 35 32  1  1
 32 40  1  0
 41 42  1  0
 41 43  1  0
 15 19  2  0
 16 22  2  0
 12 17  1  6
 17 19  1  0
 17 20  1  0
 18 19  1  0
 18 22  1  0
 18 23  1  0
  9 10  1  0
  9 11  1  0
 10 12  1  0
 11  5  1  6
 33 34  1  0
 33 35  1  0
 34 36  1  0
 35 37  1  0
 36 42  1  6
 20 21  2  0
 21 22  1  0
M  CHG  2   2  -1  26  -1
M  END
>  <COMPND>  (95) 
    8629 

>  <AUTHOR>  (95) 
    GENERATED BY OPEN BABEL 3.1.1

>  <MASTER>  (95) 
        0    0    0    0    0    0    0    0   58    0   58    0

>  <minimizedAffinity>  (95) 
-7.80928

>  <CNNscore>  (95) 
0.3680224717

>  <CNNaffinity>  (95) 
3.9459748268

>  <CNN_VS>  (95) 
1.4522074461

>  <CNNaffinity_variance>  (95) 
0.6598024368

$$$$
96
     RDKit          3D

 43 45  0  0  0  0  0  0  0  0999 V2000
   20.4401   70.1139   -1.9134 P   0  0  2  0  0  0  0  0  0  0  0  0
   19.0032   69.3793   -2.0287 O   0  0  0  0  0  0  0  0  0  0  0  0
   21.5722   69.4021   -2.5940 O   0  0  0  0  0  0  0  0  0  0  0  0
   20.6215   70.3652   -0.3254 O   0  0  0  0  0  0  0  0  0  0  0  0
   20.4864   71.6859    0.1698 C   0  0  0  0  0  0  0  0  0  0  0  0
   22.7080   72.5907    0.3099 O   0  0  0  0  0  0  0  0  0  0  0  0
   22.2296   72.8133    3.2616 O   0  0  0  0  0  0  0  0  0  0  0  0
   21.8286   75.3693    2.4001 O   0  0  0  0  0  0  0  0  0  0  0  0
   21.3156   73.0027    2.1827 C   0  0  1  0  0  0  0  0  0  0  0  0
   21.5906   74.3188    1.4856 C   0  0  2  0  0  0  0  0  0  0  0  0
   21.6557   71.9901    1.0963 C   0  0  1  0  0  0  0  0  0  0  0  0
   22.8140   73.9829    0.6497 C   0  0  2  0  0  0  0  0  0  0  0  0
   22.0319   73.4488    3.9680 H   0  0  0  0  0  0  0  0  0  0  0  0
   21.0211   75.5454    2.9078 H   0  0  0  0  0  0  0  0  0  0  0  0
   23.9146   76.5780    0.4703 O   0  0  0  0  0  0  0  0  0  0  0  0
   23.0113   76.8477   -4.0411 O   0  0  0  0  0  0  0  0  0  0  0  0
   22.8798   74.7543   -0.5594 N   0  0  0  0  0  0  0  0  0  0  0  0
   23.4641   76.7101   -1.7759 N   0  0  0  0  0  0  0  0  0  0  0  0
   23.4515   76.0479   -0.5417 C   0  0  0  0  0  0  0  0  0  0  0  0
   22.3811   74.2271   -1.7458 C   0  0  0  0  0  0  0  0  0  0  0  0
   22.3995   74.8721   -2.9141 C   0  0  0  0  0  0  0  0  0  0  0  0
   22.9797   76.2289   -2.9819 C   0  0  0  0  0  0  0  0  0  0  0  0
   23.8572   77.6129   -1.7876 H   0  0  0  0  0  0  0  0  0  0  0  0
   20.1374   71.5958   -2.4836 O   0  0  0  0  0  0  0  0  0  0  0  0
   18.7700   72.2657   -3.0262 P   0  0  2  0  0  0  0  0  0  0  0  0
   18.9337   73.8234   -2.6209 O   0  0  0  0  0  0  0  0  0  0  0  0
   17.5192   71.6186   -2.5060 O   0  0  0  0  0  0  0  0  0  0  0  0
   18.9149   72.2454   -4.6335 O   0  0  0  0  0  0  0  0  0  0  0  0
   18.4666   69.9548   -5.0449 O   0  0  0  0  0  0  0  0  0  0  0  0
   18.4465   71.3401   -8.9348 O   0  0  0  0  0  0  0  0  0  0  0  0
   15.9713   70.5995   -7.6806 O   0  0  0  0  0  0  0  0  0  0  0  0
   20.3580   72.3974   -7.0354 O   0  0  0  0  0  0  0  0  0  0  0  0
   18.2158   71.4113   -7.5252 C   0  0  1  0  0  0  0  0  0  0  0  0
   17.2520   70.2874   -7.1396 C   0  0  1  0  0  0  0  0  0  0  0  0
   19.5470   71.2529   -6.7929 C   0  0  2  0  0  0  0  0  0  0  0  0
   17.1646   70.1311   -5.6155 C   0  0  1  0  0  0  0  0  0  0  0  0
   19.3447   71.0553   -5.2896 C   0  0  1  0  0  0  0  0  0  0  0  0
   17.6052   71.4405   -9.4057 H   0  0  0  0  0  0  0  0  0  0  0  0
   16.0405   70.6960   -8.6435 H   0  0  0  0  0  0  0  0  0  0  0  0
   20.4789   72.5114   -7.9906 H   0  0  0  0  0  0  0  0  0  0  0  0
   14.9620   69.2525   -5.3232 O   0  0  0  0  0  0  0  0  0  0  0  0
   16.3326   68.9158   -5.2119 C   0  0  0  0  0  0  0  0  0  0  0  0
   14.4203   68.4883   -5.0697 H   0  0  0  0  0  0  0  0  0  0  0  0
 25 28  1  0
 25 24  1  0
 25 26  1  1
 25 27  2  0
  1  4  1  0
  1 24  1  0
  1  2  1  1
  1  3  2  0
  6 11  1  0
  6 12  1  0
 29 36  1  0
 29 37  1  0
  9  7  1  1
  7 13  1  0
 10  8  1  1
  8 14  1  0
 37 28  1  6
  4  5  1  0
 33 30  1  6
 30 38  1  0
 34 31  1  1
 31 39  1  0
 35 32  1  1
 32 40  1  0
 41 42  1  0
 41 43  1  0
 15 19  2  0
 16 22  2  0
 12 17  1  6
 17 19  1  0
 17 20  1  0
 18 19  1  0
 18 22  1  0
 18 23  1  0
  9 10  1  0
  9 11  1  0
 10 12  1  0
 11  5  1  6
 33 34  1  0
 33 35  1  0
 34 36  1  0
 35 37  1  0
 36 42  1  6
 20 21  2  0
 21 22  1  0
M  CHG  2   2  -1  26  -1
M  END
>  <COMPND>  (96) 
    8629 

>  <AUTHOR>  (96) 
    GENERATED BY OPEN BABEL 3.1.1

>  <MASTER>  (96) 
        0    0    0    0    0    0    0    0   58    0   58    0

>  <minimizedAffinity>  (96) 
-7.20763

>  <CNNscore>  (96) 
0.3655959666

>  <CNNaffinity>  (96) 
3.9365622997

>  <CNN_VS>  (96) 
1.4391913414

>  <CNNaffinity_variance>  (96) 
0.2138780653

$$$$
97
     RDKit          3D

 43 45  0  0  0  0  0  0  0  0999 V2000
   23.0380   70.5831   -1.8068 P   0  0  2  0  0  0  0  0  0  0  0  0
   24.1811   70.9672   -2.8854 O   0  0  0  0  0  0  0  0  0  0  0  0
   23.4888   69.6725   -0.7027 O   0  0  0  0  0  0  0  0  0  0  0  0
   21.8159   70.0352   -2.7146 O   0  0  0  0  0  0  0  0  0  0  0  0
   21.0542   70.9702   -3.4586 C   0  0  0  0  0  0  0  0  0  0  0  0
   18.7853   71.3354   -4.1605 O   0  0  0  0  0  0  0  0  0  0  0  0
   18.0042   69.4084   -2.0001 O   0  0  0  0  0  0  0  0  0  0  0  0
   17.8774   67.8668   -4.2459 O   0  0  0  0  0  0  0  0  0  0  0  0
   19.1508   69.3958   -2.8489 C   0  0  1  0  0  0  0  0  0  0  0  0
   18.7639   68.9672   -4.2489 C   0  0  2  0  0  0  0  0  0  0  0  0
   19.5886   70.8387   -3.0676 C   0  0  1  0  0  0  0  0  0  0  0  0
   18.1255   70.2307   -4.8002 C   0  0  2  0  0  0  0  0  0  0  0  0
   17.7064   68.4977   -1.8457 H   0  0  0  0  0  0  0  0  0  0  0  0
   18.3299   67.0878   -3.8866 H   0  0  0  0  0  0  0  0  0  0  0  0
   16.0410   69.8986   -6.6771 O   0  0  0  0  0  0  0  0  0  0  0  0
   18.8625   70.7130  -10.2292 O   0  0  0  0  0  0  0  0  0  0  0  0
   18.2872   70.3508   -6.2218 N   0  0  0  0  0  0  0  0  0  0  0  0
   17.4476   70.3046   -8.4442 N   0  0  0  0  0  0  0  0  0  0  0  0
   17.1764   70.1640   -7.0772 C   0  0  0  0  0  0  0  0  0  0  0  0
   19.5363   70.6508   -6.7542 C   0  0  0  0  0  0  0  0  0  0  0  0
   19.7786   70.7802   -8.0603 C   0  0  0  0  0  0  0  0  0  0  0  0
   18.6719   70.6007   -9.0221 C   0  0  0  0  0  0  0  0  0  0  0  0
   16.6889   70.1785   -9.0593 H   0  0  0  0  0  0  0  0  0  0  0  0
   22.5047   72.0268   -1.3127 O   0  0  0  0  0  0  0  0  0  0  0  0
   22.0950   72.5611    0.1569 P   0  0  2  0  0  0  0  0  0  0  0  0
   22.9073   73.9544    0.2850 O   0  0  0  0  0  0  0  0  0  0  0  0
   22.3639   71.5834    1.2641 O   0  0  0  0  0  0  0  0  0  0  0  0
   20.5490   73.0022    0.0149 O   0  0  0  0  0  0  0  0  0  0  0  0
   19.3024   74.9671   -0.4343 O   0  0  0  0  0  0  0  0  0  0  0  0
   17.3522   73.7153    2.9834 O   0  0  0  0  0  0  0  0  0  0  0  0
   16.0478   73.4710    0.4364 O   0  0  0  0  0  0  0  0  0  0  0  0
   20.2242   73.4225    2.7704 O   0  0  0  0  0  0  0  0  0  0  0  0
   18.0483   73.5484    1.7452 C   0  0  1  0  0  0  0  0  0  0  0  0
   17.2358   74.2302    0.6426 C   0  0  1  0  0  0  0  0  0  0  0  0
   19.4335   74.1816    1.8621 C   0  0  2  0  0  0  0  0  0  0  0  0
   18.0413   74.3265   -0.6601 C   0  0  1  0  0  0  0  0  0  0  0  0
   20.1289   74.2737    0.5027 C   0  0  1  0  0  0  0  0  0  0  0  0
   16.4720   73.3150    2.9160 H   0  0  0  0  0  0  0  0  0  0  0  0
   15.5487   73.4174    1.2666 H   0  0  0  0  0  0  0  0  0  0  0  0
   19.7733   73.3718    3.6271 H   0  0  0  0  0  0  0  0  0  0  0  0
   17.2882   74.3934   -2.9266 O   0  0  0  0  0  0  0  0  0  0  0  0
   17.3112   75.1418   -1.7251 C   0  0  0  0  0  0  0  0  0  0  0  0
   16.8262   74.8999   -3.6135 H   0  0  0  0  0  0  0  0  0  0  0  0
 25 28  1  0
 25 24  1  0
 25 26  1  1
 25 27  2  0
  1  4  1  0
  1 24  1  0
  1  2  1  6
  1  3  2  0
  6 11  1  0
  6 12  1  0
 29 36  1  0
 29 37  1  0
  9  7  1  1
  7 13  1  0
 10  8  1  1
  8 14  1  0
 37 28  1  6
  4  5  1  0
 33 30  1  1
 30 38  1  0
 34 31  1  6
 31 39  1  0
 35 32  1  1
 32 40  1  0
 41 42  1  0
 41 43  1  0
 15 19  2  0
 16 22  2  0
 12 17  1  6
 17 19  1  0
 17 20  1  0
 18 19  1  0
 18 22  1  0
 18 23  1  0
  9 10  1  0
  9 11  1  0
 10 12  1  0
 11  5  1  6
 33 34  1  0
 33 35  1  0
 34 36  1  0
 35 37  1  0
 36 42  1  6
 20 21  2  0
 21 22  1  0
M  CHG  2   2  -1  26  -1
M  END
>  <COMPND>  (97) 
    8629 

>  <AUTHOR>  (97) 
    GENERATED BY OPEN BABEL 3.1.1

>  <MASTER>  (97) 
        0    0    0    0    0    0    0    0   58    0   58    0

>  <minimizedAffinity>  (97) 
-7.22624

>  <CNNscore>  (97) 
0.3601672053

>  <CNNaffinity>  (97) 
4.2836542130

>  <CNN_VS>  (97) 
1.5428317785

>  <CNNaffinity_variance>  (97) 
0.0952342674

$$$$
98
     RDKit          3D

 43 45  0  0  0  0  0  0  0  0999 V2000
   19.6151   69.4148   -3.0616 P   0  0  2  0  0  0  0  0  0  0  0  0
   19.1715   69.3295   -1.5081 O   0  0  0  0  0  0  0  0  0  0  0  0
   19.2460   68.2212   -3.8926 O   0  0  0  0  0  0  0  0  0  0  0  0
   21.1936   69.7644   -2.9962 O   0  0  0  0  0  0  0  0  0  0  0  0
   21.6274   71.0248   -3.4768 C   0  0  0  0  0  0  0  0  0  0  0  0
   23.0756   72.4220   -2.1636 O   0  0  0  0  0  0  0  0  0  0  0  0
   25.0491   70.1677   -2.2826 O   0  0  0  0  0  0  0  0  0  0  0  0
   23.9686   69.8811    0.2048 O   0  0  0  0  0  0  0  0  0  0  0  0
   23.6263   70.1173   -2.1907 C   0  0  1  0  0  0  0  0  0  0  0  0
   23.1761   70.4906   -0.7937 C   0  0  2  0  0  0  0  0  0  0  0  0
   23.0615   71.2614   -3.0233 C   0  0  1  0  0  0  0  0  0  0  0  0
   23.3182   72.0031   -0.8106 C   0  0  2  0  0  0  0  0  0  0  0  0
   25.4325   69.4461   -1.7589 H   0  0  0  0  0  0  0  0  0  0  0  0
   23.8436   68.9197    0.1749 H   0  0  0  0  0  0  0  0  0  0  0  0
   23.5439   74.6732    0.0825 O   0  0  0  0  0  0  0  0  0  0  0  0
   19.6357   74.3852    2.5083 O   0  0  0  0  0  0  0  0  0  0  0  0
   22.3737   72.6516    0.0548 N   0  0  0  0  0  0  0  0  0  0  0  0
   21.5977   74.5277    1.2895 N   0  0  0  0  0  0  0  0  0  0  0  0
   22.5803   73.9953    0.4451 C   0  0  0  0  0  0  0  0  0  0  0  0
   21.2573   71.9566    0.5069 C   0  0  0  0  0  0  0  0  0  0  0  0
   20.3301   72.4783    1.3128 C   0  0  0  0  0  0  0  0  0  0  0  0
   20.4712   73.8768    1.7670 C   0  0  0  0  0  0  0  0  0  0  0  0
   21.7209   75.4622    1.5747 H   0  0  0  0  0  0  0  0  0  0  0  0
   18.9549   70.8063   -3.5523 O   0  0  0  0  0  0  0  0  0  0  0  0
   17.4588   71.1513   -4.0579 P   0  0  2  0  0  0  0  0  0  0  0  0
   17.3428   72.7462   -3.8126 O   0  0  0  0  0  0  0  0  0  0  0  0
   16.3828   70.3426   -3.3930 O   0  0  0  0  0  0  0  0  0  0  0  0
   17.5223   70.9893   -5.6625 O   0  0  0  0  0  0  0  0  0  0  0  0
   18.7520   72.8840   -6.3797 O   0  0  0  0  0  0  0  0  0  0  0  0
   18.1719   71.0517  -10.0345 O   0  0  0  0  0  0  0  0  0  0  0  0
   20.7798   71.0229   -8.8319 O   0  0  0  0  0  0  0  0  0  0  0  0
   16.0585   71.0294   -8.0564 O   0  0  0  0  0  0  0  0  0  0  0  0
   18.3984   71.1014   -8.6232 C   0  0  1  0  0  0  0  0  0  0  0  0
   19.7111   71.8467   -8.3742 C   0  0  1  0  0  0  0  0  0  0  0  0
   17.2324   71.8284   -7.9559 C   0  0  2  0  0  0  0  0  0  0  0  0
   19.8886   72.1738   -6.8853 C   0  0  1  0  0  0  0  0  0  0  0  0
   17.5314   72.1494   -6.4904 C   0  0  1  0  0  0  0  0  0  0  0  0
   18.9085   70.5909  -10.4642 H   0  0  0  0  0  0  0  0  0  0  0  0
   20.6555   70.8233   -9.7732 H   0  0  0  0  0  0  0  0  0  0  0  0
   15.8799   70.8333   -8.9889 H   0  0  0  0  0  0  0  0  0  0  0  0
   22.2705   72.3252   -6.9974 O   0  0  0  0  0  0  0  0  0  0  0  0
   21.1117   73.0532   -6.6348 C   0  0  0  0  0  0  0  0  0  0  0  0
   23.0568   72.8726   -6.8436 H   0  0  0  0  0  0  0  0  0  0  0  0
 25 28  1  0
 25 24  1  0
 25 26  1  6
 25 27  2  0
  1  4  1  0
  1 24  1  0
  1  2  1  1
  1  3  2  0
  6 11  1  0
  6 12  1  0
 29 36  1  0
 29 37  1  0
  9  7  1  1
  7 13  1  0
 10  8  1  1
  8 14  1  0
 37 28  1  1
  4  5  1  0
 33 30  1  6
 30 38  1  0
 34 31  1  1
 31 39  1  0
 35 32  1  1
 32 40  1  0
 41 42  1  0
 41 43  1  0
 15 19  2  0
 16 22  2  0
 12 17  1  1
 17 19  1  0
 17 20  1  0
 18 19  1  0
 18 22  1  0
 18 23  1  0
  9 10  1  0
  9 11  1  0
 10 12  1  0
 11  5  1  1
 33 34  1  0
 33 35  1  0
 34 36  1  0
 35 37  1  0
 36 42  1  6
 20 21  2  0
 21 22  1  0
M  CHG  2   2  -1  26  -1
M  END
>  <COMPND>  (98) 
    8629 

>  <AUTHOR>  (98) 
    GENERATED BY OPEN BABEL 3.1.1

>  <MASTER>  (98) 
        0    0    0    0    0    0    0    0   58    0   58    0

>  <minimizedAffinity>  (98) 
-8.11996

>  <CNNscore>  (98) 
0.3493725955

>  <CNNaffinity>  (98) 
4.0663232803

>  <CNN_VS>  (98) 
1.4206619263

>  <CNNaffinity_variance>  (98) 
0.3482386172

$$$$
99
     RDKit          3D

 43 45  0  0  0  0  0  0  0  0999 V2000
   22.2859   71.1112   -2.8954 P   0  0  2  0  0  0  0  0  0  0  0  0
   23.4988   72.0755   -3.3605 O   0  0  0  0  0  0  0  0  0  0  0  0
   22.6161   69.6479   -2.8635 O   0  0  0  0  0  0  0  0  0  0  0  0
   21.0604   71.5340   -3.8635 O   0  0  0  0  0  0  0  0  0  0  0  0
   21.0162   72.8612   -4.3579 C   0  0  0  0  0  0  0  0  0  0  0  0
   19.8478   71.6519   -6.0744 O   0  0  0  0  0  0  0  0  0  0  0  0
   19.9707   74.1818   -7.6793 O   0  0  0  0  0  0  0  0  0  0  0  0
   17.4182   74.2100   -6.7198 O   0  0  0  0  0  0  0  0  0  0  0  0
   19.8000   74.0129   -6.2730 C   0  0  1  0  0  0  0  0  0  0  0  0
   18.3992   73.5246   -5.9683 C   0  0  2  0  0  0  0  0  0  0  0  0
   20.6520   72.8278   -5.8359 C   0  0  1  0  0  0  0  0  0  0  0  0
   18.4923   72.0527   -6.3328 C   0  0  2  0  0  0  0  0  0  0  0  0
   19.4363   74.9333   -7.9817 H   0  0  0  0  0  0  0  0  0  0  0  0
   17.3976   75.1418   -6.4513 H   0  0  0  0  0  0  0  0  0  0  0  0
   16.8713   69.9919   -7.3834 O   0  0  0  0  0  0  0  0  0  0  0  0
   15.1359   68.9911   -3.2327 O   0  0  0  0  0  0  0  0  0  0  0  0
   17.6075   71.2374   -5.5493 N   0  0  0  0  0  0  0  0  0  0  0  0
   16.0087   69.4951   -5.3158 N   0  0  0  0  0  0  0  0  0  0  0  0
   16.8363   70.2299   -6.1743 C   0  0  0  0  0  0  0  0  0  0  0  0
   17.5114   71.4403   -4.1769 C   0  0  0  0  0  0  0  0  0  0  0  0
   16.7163   70.7319   -3.3724 C   0  0  0  0  0  0  0  0  0  0  0  0
   15.8773   69.6600   -3.9460 C   0  0  0  0  0  0  0  0  0  0  0  0
   15.4618   68.7881   -5.7290 H   0  0  0  0  0  0  0  0  0  0  0  0
   21.8530   71.7344   -1.4681 O   0  0  0  0  0  0  0  0  0  0  0  0
   20.5105   71.5412   -0.5887 P   0  0  2  0  0  0  0  0  0  0  0  0
   20.3886   69.9343   -0.4458 O   0  0  0  0  0  0  0  0  0  0  0  0
   19.2949   72.2055   -1.1674 O   0  0  0  0  0  0  0  0  0  0  0  0
   20.9126   72.0525    0.8885 O   0  0  0  0  0  0  0  0  0  0  0  0
   22.5084   73.6113    0.0884 O   0  0  0  0  0  0  0  0  0  0  0  0
   21.7961   75.2484    3.8117 O   0  0  0  0  0  0  0  0  0  0  0  0
   20.7764   76.5584    1.4682 O   0  0  0  0  0  0  0  0  0  0  0  0
   21.9020   72.3730    3.4949 O   0  0  0  0  0  0  0  0  0  0  0  0
   21.4563   74.5652    2.6021 C   0  0  1  0  0  0  0  0  0  0  0  0
   21.7341   75.5042    1.4266 C   0  0  1  0  0  0  0  0  0  0  0  0
   22.3023   73.2983    2.4899 C   0  0  2  0  0  0  0  0  0  0  0  0
   21.6490   74.7573    0.0888 C   0  0  1  0  0  0  0  0  0  0  0  0
   22.1834   72.6606    1.1044 C   0  0  1  0  0  0  0  0  0  0  0  0
   21.2620   76.0536    3.8893 H   0  0  0  0  0  0  0  0  0  0  0  0
   20.8403   77.0216    2.3182 H   0  0  0  0  0  0  0  0  0  0  0  0
   21.9821   72.7885    4.3671 H   0  0  0  0  0  0  0  0  0  0  0  0
   22.7026   74.8164   -2.0549 O   0  0  0  0  0  0  0  0  0  0  0  0
   22.0764   75.6358   -1.0850 C   0  0  0  0  0  0  0  0  0  0  0  0
   22.9797   75.3621   -2.8080 H   0  0  0  0  0  0  0  0  0  0  0  0
 25 28  1  0
 25 24  1  0
 25 26  1  1
 25 27  2  0
  1  4  1  0
  1 24  1  0
  1  2  1  6
  1  3  2  0
  6 11  1  0
  6 12  1  0
 29 36  1  0
 29 37  1  0
  9  7  1  6
  7 13  1  0
 10  8  1  6
  8 14  1  0
 37 28  1  6
  4  5  1  0
 33 30  1  1
 30 38  1  0
 34 31  1  6
 31 39  1  0
 35 32  1  1
 32 40  1  0
 41 42  1  0
 41 43  1  0
 15 19  2  0
 16 22  2  0
 12 17  1  1
 17 19  1  0
 17 20  1  0
 18 19  1  0
 18 22  1  0
 18 23  1  0
  9 10  1  0
  9 11  1  0
 10 12  1  0
 11  5  1  1
 33 34  1  0
 33 35  1  0
 34 36  1  0
 35 37  1  0
 36 42  1  6
 20 21  2  0
 21 22  1  0
M  CHG  2   2  -1  26  -1
M  END
>  <COMPND>  (99) 
    8629 

>  <AUTHOR>  (99) 
    GENERATED BY OPEN BABEL 3.1.1

>  <MASTER>  (99) 
        0    0    0    0    0    0    0    0   58    0   58    0

>  <minimizedAffinity>  (99) 
-7.43348

>  <CNNscore>  (99) 
0.3350260854

>  <CNNaffinity>  (99) 
4.0687251091

>  <CNN_VS>  (99) 
1.3631290197

>  <CNNaffinity_variance>  (99) 
0.1087234989

$$$$
100
     RDKit          3D

 43 45  0  0  0  0  0  0  0  0999 V2000
   20.9024   70.1945   -1.7453 P   0  0  2  0  0  0  0  0  0  0  0  0
   20.0034   69.3505   -0.6980 O   0  0  0  0  0  0  0  0  0  0  0  0
   22.3333   69.7553   -1.8501 O   0  0  0  0  0  0  0  0  0  0  0  0
   20.6704   71.7338   -1.3040 O   0  0  0  0  0  0  0  0  0  0  0  0
   20.2122   71.9986    0.0104 C   0  0  0  0  0  0  0  0  0  0  0  0
   22.5111   72.6529    0.2566 O   0  0  0  0  0  0  0  0  0  0  0  0
   22.0604   72.4394    3.2133 O   0  0  0  0  0  0  0  0  0  0  0  0
   21.9075   75.1277    2.7813 O   0  0  0  0  0  0  0  0  0  0  0  0
   21.1676   72.8872    2.1946 C   0  0  1  0  0  0  0  0  0  0  0  0
   21.5678   74.2664    1.7138 C   0  0  2  0  0  0  0  0  0  0  0  0
   21.4067   72.0360    0.9538 C   0  0  1  0  0  0  0  0  0  0  0  0
   22.7518   73.9552    0.8141 C   0  0  2  0  0  0  0  0  0  0  0  0
   21.9260   72.9682    4.0160 H   0  0  0  0  0  0  0  0  0  0  0  0
   21.1216   75.2954    3.3243 H   0  0  0  0  0  0  0  0  0  0  0  0
   24.0186   76.4677    1.0606 O   0  0  0  0  0  0  0  0  0  0  0  0
   23.2234   77.5072   -3.3585 O   0  0  0  0  0  0  0  0  0  0  0  0
   22.8904   74.9023   -0.2561 N   0  0  0  0  0  0  0  0  0  0  0  0
   23.6218   76.9832   -1.1400 N   0  0  0  0  0  0  0  0  0  0  0  0
   23.5427   76.1361   -0.0272 C   0  0  0  0  0  0  0  0  0  0  0  0
   22.3827   74.6035   -1.5158 C   0  0  0  0  0  0  0  0  0  0  0  0
   22.4652   75.4227   -2.5663 C   0  0  0  0  0  0  0  0  0  0  0  0
   23.1317   76.7319   -2.4117 C   0  0  0  0  0  0  0  0  0  0  0  0
   24.0717   77.8485   -1.0041 H   0  0  0  0  0  0  0  0  0  0  0  0
   20.0612   70.0802   -3.1209 O   0  0  0  0  0  0  0  0  0  0  0  0
   18.4733   69.9321   -3.3850 P   0  0  2  0  0  0  0  0  0  0  0  0
   17.8723   71.3255   -2.8242 O   0  0  0  0  0  0  0  0  0  0  0  0
   17.8603   68.7039   -2.7769 O   0  0  0  0  0  0  0  0  0  0  0  0
   18.3144   70.0354   -4.9879 O   0  0  0  0  0  0  0  0  0  0  0  0
   18.9442   72.2097   -5.6897 O   0  0  0  0  0  0  0  0  0  0  0  0
   17.5806   70.7224   -9.2925 O   0  0  0  0  0  0  0  0  0  0  0  0
   20.3997   71.0902   -8.8861 O   0  0  0  0  0  0  0  0  0  0  0  0
   16.2039   70.0465   -6.8374 O   0  0  0  0  0  0  0  0  0  0  0  0
   18.2156   70.6575   -8.0126 C   0  0  1  0  0  0  0  0  0  0  0  0
   19.4034   71.6218   -8.0172 C   0  0  1  0  0  0  0  0  0  0  0  0
   17.2075   71.0514   -6.9347 C   0  0  2  0  0  0  0  0  0  0  0  0
   19.9713   71.8079   -6.6037 C   0  0  1  0  0  0  0  0  0  0  0  0
   17.8833   71.2589   -5.5781 C   0  0  1  0  0  0  0  0  0  0  0  0
   18.2152   70.4730   -9.9814 H   0  0  0  0  0  0  0  0  0  0  0  0
   20.0282   70.9771   -9.7751 H   0  0  0  0  0  0  0  0  0  0  0  0
   15.7834   69.9247   -7.7024 H   0  0  0  0  0  0  0  0  0  0  0  0
   22.2571   72.3320   -7.0610 O   0  0  0  0  0  0  0  0  0  0  0  0
   21.0538   72.8841   -6.5593 C   0  0  0  0  0  0  0  0  0  0  0  0
   22.9551   73.0059   -7.0391 H   0  0  0  0  0  0  0  0  0  0  0  0
 25 28  1  0
 25 24  1  0
 25 26  1  1
 25 27  2  0
  1  4  1  0
  1 24  1  0
  1  2  1  1
  1  3  2  0
  6 11  1  0
  6 12  1  0
 29 36  1  0
 29 37  1  0
  9  7  1  1
  7 13  1  0
 10  8  1  1
  8 14  1  0
 37 28  1  6
  4  5  1  0
 33 30  1  6
 30 38  1  0
 34 31  1  6
 31 39  1  0
 35 32  1  1
 32 40  1  0
 41 42  1  0
 41 43  1  0
 15 19  2  0
 16 22  2  0
 12 17  1  6
 17 19  1  0
 17 20  1  0
 18 19  1  0
 18 22  1  0
 18 23  1  0
  9 10  1  0
  9 11  1  0
 10 12  1  0
 11  5  1  6
 33 34  1  0
 33 35  1  0
 34 36  1  0
 35 37  1  0
 36 42  1  6
 20 21  2  0
 21 22  1  0
M  CHG  2   2  -1  26  -1
M  END
>  <COMPND>  (100) 
    8629 

>  <AUTHOR>  (100) 
    GENERATED BY OPEN BABEL 3.1.1

>  <MASTER>  (100) 
        0    0    0    0    0    0    0    0   58    0   58    0

>  <minimizedAffinity>  (100) 
-7.75164

>  <CNNscore>  (100) 
0.3345746696

>  <CNNaffinity>  (100) 
3.8773663044

>  <CNN_VS>  (100) 
1.2972685099

>  <CNNaffinity_variance>  (100) 
0.3553747535

$$$$
101
     RDKit          3D

 43 45  0  0  0  0  0  0  0  0999 V2000
   22.9155   71.1431   -2.8993 P   0  0  2  0  0  0  0  0  0  0  0  0
   23.7158   72.2172   -3.8067 O   0  0  0  0  0  0  0  0  0  0  0  0
   23.6552   69.8660   -2.6286 O   0  0  0  0  0  0  0  0  0  0  0  0
   21.4913   70.9845   -3.6507 O   0  0  0  0  0  0  0  0  0  0  0  0
   20.7836   69.7653   -3.5077 C   0  0  0  0  0  0  0  0  0  0  0  0
   18.7841   70.9162   -4.1793 O   0  0  0  0  0  0  0  0  0  0  0  0
   17.3322   69.1209   -2.2662 O   0  0  0  0  0  0  0  0  0  0  0  0
   16.8213   67.9563   -4.6786 O   0  0  0  0  0  0  0  0  0  0  0  0
   18.4518   68.8319   -3.1018 C   0  0  1  0  0  0  0  0  0  0  0  0
   18.0118   68.7057   -4.5455 C   0  0  2  0  0  0  0  0  0  0  0  0
   19.3366   70.0714   -3.1461 C   0  0  1  0  0  0  0  0  0  0  0  0
   17.8357   70.1597   -4.9494 C   0  0  2  0  0  0  0  0  0  0  0  0
   16.7526   68.3436   -2.2222 H   0  0  0  0  0  0  0  0  0  0  0  0
   16.9848   67.0388   -4.4098 H   0  0  0  0  0  0  0  0  0  0  0  0
   15.8685   70.0212   -6.9715 O   0  0  0  0  0  0  0  0  0  0  0  0
   18.9312   71.0026  -10.2728 O   0  0  0  0  0  0  0  0  0  0  0  0
   18.0912   70.3750   -6.3457 N   0  0  0  0  0  0  0  0  0  0  0  0
   17.3950   70.5101   -8.6136 N   0  0  0  0  0  0  0  0  0  0  0  0
   17.0334   70.2813   -7.2799 C   0  0  0  0  0  0  0  0  0  0  0  0
   19.3788   70.6758   -6.7762 C   0  0  0  0  0  0  0  0  0  0  0  0
   19.7075   70.8899   -8.0519 C   0  0  0  0  0  0  0  0  0  0  0  0
   18.6608   70.8109   -9.0912 C   0  0  0  0  0  0  0  0  0  0  0  0
   16.6745   70.4498   -9.2822 H   0  0  0  0  0  0  0  0  0  0  0  0
   22.5366   71.9940   -1.5782 O   0  0  0  0  0  0  0  0  0  0  0  0
   22.0713   71.5169   -0.1055 P   0  0  2  0  0  0  0  0  0  0  0  0
   23.3733   70.7421    0.4621 O   0  0  0  0  0  0  0  0  0  0  0  0
   20.8109   70.7015   -0.0925 O   0  0  0  0  0  0  0  0  0  0  0  0
   21.9969   72.8772    0.7600 O   0  0  0  0  0  0  0  0  0  0  0  0
   22.5610   73.4274    2.9951 O   0  0  0  0  0  0  0  0  0  0  0  0
   18.9916   75.4810    2.6908 O   0  0  0  0  0  0  0  0  0  0  0  0
   21.4664   76.9376    2.7322 O   0  0  0  0  0  0  0  0  0  0  0  0
   19.2748   72.8849    1.4420 O   0  0  0  0  0  0  0  0  0  0  0  0
   20.2346   74.9520    2.2212 C   0  0  1  0  0  0  0  0  0  0  0  0
   21.3610   75.5555    3.0625 C   0  0  1  0  0  0  0  0  0  0  0  0
   20.2145   73.4311    2.3612 C   0  0  2  0  0  0  0  0  0  0  0  0
   22.6930   74.8402    2.7995 C   0  0  1  0  0  0  0  0  0  0  0  0
   21.5991   72.8241    2.1276 C   0  0  1  0  0  0  0  0  0  0  0  0
   18.9976   76.4464    2.6041 H   0  0  0  0  0  0  0  0  0  0  0  0
   20.6186   77.3775    2.9023 H   0  0  0  0  0  0  0  0  0  0  0  0
   18.4024   73.2769    1.6004 H   0  0  0  0  0  0  0  0  0  0  0  0
   24.2332   76.5946    3.3083 O   0  0  0  0  0  0  0  0  0  0  0  0
   23.7954   75.3198    3.7413 C   0  0  0  0  0  0  0  0  0  0  0  0
   24.9347   76.9126    3.8986 H   0  0  0  0  0  0  0  0  0  0  0  0
 25 28  1  0
 25 24  1  0
 25 26  1  1
 25 27  2  0
  1  4  1  0
  1 24  1  0
  1  2  1  6
  1  3  2  0
  6 11  1  0
  6 12  1  0
 29 36  1  0
 29 37  1  0
  9  7  1  1
  7 13  1  0
 10  8  1  1
  8 14  1  0
 37 28  1  6
  4  5  1  0
 33 30  1  1
 30 38  1  0
 34 31  1  6
 31 39  1  0
 35 32  1  6
 32 40  1  0
 41 42  1  0
 41 43  1  0
 15 19  2  0
 16 22  2  0
 12 17  1  6
 17 19  1  0
 17 20  1  0
 18 19  1  0
 18 22  1  0
 18 23  1  0
  9 10  1  0
  9 11  1  0
 10 12  1  0
 11  5  1  6
 33 34  1  0
 33 35  1  0
 34 36  1  0
 35 37  1  0
 36 42  1  1
 20 21  2  0
 21 22  1  0
M  CHG  2   2  -1  26  -1
M  END
>  <COMPND>  (101) 
    8629 

>  <AUTHOR>  (101) 
    GENERATED BY OPEN BABEL 3.1.1

>  <MASTER>  (101) 
        0    0    0    0    0    0    0    0   58    0   58    0

>  <minimizedAffinity>  (101) 
-7.98834

>  <CNNscore>  (101) 
0.8024982214

>  <CNNaffinity>  (101) 
4.7405600548

>  <CNN_VS>  (101) 
3.8042910099

>  <CNNaffinity_variance>  (101) 
0.0384496115

$$$$
102
     RDKit          3D

 43 45  0  0  0  0  0  0  0  0999 V2000
   20.9257   70.1951   -1.8765 P   0  0  2  0  0  0  0  0  0  0  0  0
   21.4529   69.9098   -3.3792 O   0  0  0  0  0  0  0  0  0  0  0  0
   21.9300   69.9351   -0.7925 O   0  0  0  0  0  0  0  0  0  0  0  0
   19.5515   69.3465   -1.7794 O   0  0  0  0  0  0  0  0  0  0  0  0
   18.8391   69.0743   -2.9737 C   0  0  0  0  0  0  0  0  0  0  0  0
   17.9639   70.9841   -4.1401 O   0  0  0  0  0  0  0  0  0  0  0  0
   15.2882   70.1945   -3.0410 O   0  0  0  0  0  0  0  0  0  0  0  0
   15.1779   69.2617   -5.6012 O   0  0  0  0  0  0  0  0  0  0  0  0
   16.3631   69.3659   -3.4808 C   0  0  1  0  0  0  0  0  0  0  0  0
   16.4484   69.3738   -4.9929 C   0  0  2  0  0  0  0  0  0  0  0  0
   17.6695   70.0426   -3.0850 C   0  0  1  0  0  0  0  0  0  0  0  0
   17.1102   70.7142   -5.2641 C   0  0  2  0  0  0  0  0  0  0  0  0
   14.4431   69.7827   -3.2824 H   0  0  0  0  0  0  0  0  0  0  0  0
   14.7983   68.3922   -5.3994 H   0  0  0  0  0  0  0  0  0  0  0  0
   16.0516   70.7351   -7.8826 O   0  0  0  0  0  0  0  0  0  0  0  0
   20.2519   70.6598   -9.7781 O   0  0  0  0  0  0  0  0  0  0  0  0
   17.9043   70.7009   -6.4602 N   0  0  0  0  0  0  0  0  0  0  0  0
   18.1439   70.6978   -8.8243 N   0  0  0  0  0  0  0  0  0  0  0  0
   17.2742   70.7121   -7.7264 C   0  0  0  0  0  0  0  0  0  0  0  0
   19.2918   70.6773   -6.3706 C   0  0  0  0  0  0  0  0  0  0  0  0
   20.1070   70.6626   -7.4272 C   0  0  0  0  0  0  0  0  0  0  0  0
   19.5290   70.6730   -8.7865 C   0  0  0  0  0  0  0  0  0  0  0  0
   17.7274   70.7049   -9.7166 H   0  0  0  0  0  0  0  0  0  0  0  0
   20.4043   71.7229   -1.9582 O   0  0  0  0  0  0  0  0  0  0  0  0
   21.2145   73.1156   -2.0883 P   0  0  2  0  0  0  0  0  0  0  0  0
   20.3074   73.9782   -3.1133 O   0  0  0  0  0  0  0  0  0  0  0  0
   22.6463   72.9573   -2.5112 O   0  0  0  0  0  0  0  0  0  0  0  0
   21.0152   73.8392   -0.6595 O   0  0  0  0  0  0  0  0  0  0  0  0
   22.6833   74.0582    1.0097 O   0  0  0  0  0  0  0  0  0  0  0  0
   19.3355   73.9992    3.4263 O   0  0  0  0  0  0  0  0  0  0  0  0
   20.7662   76.4601    3.0455 O   0  0  0  0  0  0  0  0  0  0  0  0
   19.4616   72.2920    1.0919 O   0  0  0  0  0  0  0  0  0  0  0  0
   20.0883   74.3086    2.2503 C   0  0  1  0  0  0  0  0  0  0  0  0
   21.2735   75.1866    2.6567 C   0  0  1  0  0  0  0  0  0  0  0  0
   20.5757   73.0087    1.6131 C   0  0  2  0  0  0  0  0  0  0  0  0
   22.2719   75.3391    1.5013 C   0  0  1  0  0  0  0  0  0  0  0  0
   21.6012   73.2708    0.5087 C   0  0  1  0  0  0  0  0  0  0  0  0
   19.0227   74.8203    3.8354 H   0  0  0  0  0  0  0  0  0  0  0  0
   20.1368   76.3497    3.7754 H   0  0  0  0  0  0  0  0  0  0  0  0
   18.8199   72.1321    1.8008 H   0  0  0  0  0  0  0  0  0  0  0  0
   23.6540   75.9859    3.3398 O   0  0  0  0  0  0  0  0  0  0  0  0
   23.5365   76.0788    1.9320 C   0  0  0  0  0  0  0  0  0  0  0  0
   24.4548   76.4520    3.6283 H   0  0  0  0  0  0  0  0  0  0  0  0
 25 28  1  0
 25 24  1  0
 25 26  1  6
 25 27  2  0
  1  4  1  0
  1 24  1  0
  1  2  1  6
  1  3  2  0
  6 11  1  0
  6 12  1  0
 29 36  1  0
 29 37  1  0
  9  7  1  6
  7 13  1  0
 10  8  1  6
  8 14  1  0
 37 28  1  6
  4  5  1  0
 33 30  1  1
 30 38  1  0
 34 31  1  6
 31 39  1  0
 35 32  1  6
 32 40  1  0
 41 42  1  0
 41 43  1  0
 15 19  2  0
 16 22  2  0
 12 17  1  6
 17 19  1  0
 17 20  1  0
 18 19  1  0
 18 22  1  0
 18 23  1  0
  9 10  1  0
  9 11  1  0
 10 12  1  0
 11  5  1  6
 33 34  1  0
 33 35  1  0
 34 36  1  0
 35 37  1  0
 36 42  1  1
 20 21  2  0
 21 22  1  0
M  CHG  2   2  -1  26  -1
M  END
>  <COMPND>  (102) 
    8629 

>  <AUTHOR>  (102) 
    GENERATED BY OPEN BABEL 3.1.1

>  <MASTER>  (102) 
        0    0    0    0    0    0    0    0   58    0   58    0

>  <minimizedAffinity>  (102) 
-7.48143

>  <CNNscore>  (102) 
0.7248904109

>  <CNNaffinity>  (102) 
4.5094833374

>  <CNN_VS>  (102) 
3.2688813210

>  <CNNaffinity_variance>  (102) 
0.0443990044

$$$$
103
     RDKit          3D

 43 45  0  0  0  0  0  0  0  0999 V2000
   22.3966   72.2543   -2.2362 P   0  0  2  0  0  0  0  0  0  0  0  0
   23.7290   71.7541   -3.0056 O   0  0  0  0  0  0  0  0  0  0  0  0
   21.5333   73.2026   -3.0151 O   0  0  0  0  0  0  0  0  0  0  0  0
   22.9506   72.8094   -0.8210 O   0  0  0  0  0  0  0  0  0  0  0  0
   22.3182   73.9380   -0.2431 C   0  0  0  0  0  0  0  0  0  0  0  0
   23.2073   74.2183    1.9716 O   0  0  0  0  0  0  0  0  0  0  0  0
   20.4303   73.6595    2.9549 O   0  0  0  0  0  0  0  0  0  0  0  0
   20.5892   76.3760    3.1348 O   0  0  0  0  0  0  0  0  0  0  0  0
   20.8493   74.3676    1.7894 C   0  0  1  0  0  0  0  0  0  0  0  0
   21.3923   75.7296    2.1684 C   0  0  2  0  0  0  0  0  0  0  0  0
   22.0885   73.6731    1.2386 C   0  0  1  0  0  0  0  0  0  0  0  0
   22.7746   75.3823    2.6946 C   0  0  2  0  0  0  0  0  0  0  0  0
   19.6398   74.0845    3.3245 H   0  0  0  0  0  0  0  0  0  0  0  0
   19.7207   76.5760    2.7522 H   0  0  0  0  0  0  0  0  0  0  0  0
   25.2324   75.6185    4.0663 O   0  0  0  0  0  0  0  0  0  0  0  0
   26.3302   79.4840    1.8094 O   0  0  0  0  0  0  0  0  0  0  0  0
   23.7222   76.4404    2.4849 N   0  0  0  0  0  0  0  0  0  0  0  0
   25.7771   77.5430    2.9413 N   0  0  0  0  0  0  0  0  0  0  0  0
   24.9264   76.4672    3.2263 C   0  0  0  0  0  0  0  0  0  0  0  0
   23.4535   77.4366    1.5525 C   0  0  0  0  0  0  0  0  0  0  0  0
   24.2746   78.4564    1.2935 C   0  0  0  0  0  0  0  0  0  0  0  0
   25.5539   78.5584    2.0249 C   0  0  0  0  0  0  0  0  0  0  0  0
   26.6217   77.5826    3.4460 H   0  0  0  0  0  0  0  0  0  0  0  0
   21.6727   70.8688   -1.8247 O   0  0  0  0  0  0  0  0  0  0  0  0
   20.1232   70.5336   -1.5093 P   0  0  2  0  0  0  0  0  0  0  0  0
   19.6226   71.8331   -0.6858 O   0  0  0  0  0  0  0  0  0  0  0  0
   19.9082   69.2291   -0.7979 O   0  0  0  0  0  0  0  0  0  0  0  0
   19.3817   70.6462   -2.9385 O   0  0  0  0  0  0  0  0  0  0  0  0
   18.8330   68.6253   -4.0482 O   0  0  0  0  0  0  0  0  0  0  0  0
   18.5579   71.2278   -7.2423 O   0  0  0  0  0  0  0  0  0  0  0  0
   16.1643   70.1203   -6.1054 O   0  0  0  0  0  0  0  0  0  0  0  0
   20.6409   71.5848   -5.2641 O   0  0  0  0  0  0  0  0  0  0  0  0
   18.4381   70.8259   -5.8750 C   0  0  1  0  0  0  0  0  0  0  0  0
   17.4725   69.6412   -5.8062 C   0  0  1  0  0  0  0  0  0  0  0  0
   19.8159   70.4278   -5.3492 C   0  0  2  0  0  0  0  0  0  0  0  0
   17.4972   68.9862   -4.4186 C   0  0  1  0  0  0  0  0  0  0  0  0
   19.7232   69.7413   -3.9853 C   0  0  1  0  0  0  0  0  0  0  0  0
   17.6866   71.4823   -7.5821 H   0  0  0  0  0  0  0  0  0  0  0  0
   16.1626   70.5319   -6.9840 H   0  0  0  0  0  0  0  0  0  0  0  0
   20.6918   72.0101   -6.1338 H   0  0  0  0  0  0  0  0  0  0  0  0
   15.3301   68.0544   -4.0385 O   0  0  0  0  0  0  0  0  0  0  0  0
   16.6614   67.7089   -4.3741 C   0  0  0  0  0  0  0  0  0  0  0  0
   14.7864   67.2512   -4.0068 H   0  0  0  0  0  0  0  0  0  0  0  0
 25 28  1  0
 25 24  1  0
 25 26  1  1
 25 27  2  0
  1  4  1  0
  1 24  1  0
  1  2  1  6
  1  3  2  0
  6 11  1  0
  6 12  1  0
 29 36  1  0
 29 37  1  0
  9  7  1  1
  7 13  1  0
 10  8  1  1
  8 14  1  0
 37 28  1  1
  4  5  1  0
 33 30  1  6
 30 38  1  0
 34 31  1  1
 31 39  1  0
 35 32  1  1
 32 40  1  0
 41 42  1  0
 41 43  1  0
 15 19  2  0
 16 22  2  0
 12 17  1  6
 17 19  1  0
 17 20  1  0
 18 19  1  0
 18 22  1  0
 18 23  1  0
  9 10  1  0
  9 11  1  0
 10 12  1  0
 11  5  1  6
 33 34  1  0
 33 35  1  0
 34 36  1  0
 35 37  1  0
 36 42  1  6
 20 21  2  0
 21 22  1  0
M  CHG  2   2  -1  26  -1
M  END
>  <COMPND>  (103) 
    8629 

>  <AUTHOR>  (103) 
    GENERATED BY OPEN BABEL 3.1.1

>  <MASTER>  (103) 
        0    0    0    0    0    0    0    0   58    0   58    0

>  <minimizedAffinity>  (103) 
-6.62727

>  <CNNscore>  (103) 
0.7195810080

>  <CNNaffinity>  (103) 
4.3381881714

>  <CNN_VS>  (103) 
3.1216778755

>  <CNNaffinity_variance>  (103) 
0.1678960025

$$$$
104
     RDKit          3D

 43 45  0  0  0  0  0  0  0  0999 V2000
   22.6927   73.4404   -4.6760 P   0  0  2  0  0  0  0  0  0  0  0  0
   22.7622   74.8331   -5.4964 O   0  0  0  0  0  0  0  0  0  0  0  0
   24.0153   72.7657   -4.4595 O   0  0  0  0  0  0  0  0  0  0  0  0
   21.5843   72.5739   -5.4750 O   0  0  0  0  0  0  0  0  0  0  0  0
   20.5550   73.2627   -6.1633 C   0  0  0  0  0  0  0  0  0  0  0  0
   19.8969   71.1142   -7.0144 O   0  0  0  0  0  0  0  0  0  0  0  0
   18.9492   72.5790   -9.4530 O   0  0  0  0  0  0  0  0  0  0  0  0
   16.6314   72.1410   -8.0844 O   0  0  0  0  0  0  0  0  0  0  0  0
   18.9118   72.9844   -8.0857 C   0  0  1  0  0  0  0  0  0  0  0  0
   17.8308   72.2278   -7.3423 C   0  0  2  0  0  0  0  0  0  0  0  0
   20.1788   72.4744   -7.4103 C   0  0  1  0  0  0  0  0  0  0  0  0
   18.4848   70.8734   -7.1277 C   0  0  2  0  0  0  0  0  0  0  0  0
   18.1501   72.8936   -9.9053 H   0  0  0  0  0  0  0  0  0  0  0  0
   16.2540   73.0277   -8.1941 H   0  0  0  0  0  0  0  0  0  0  0  0
   15.8989   69.7872   -6.7946 O   0  0  0  0  0  0  0  0  0  0  0  0
   16.8295   68.4160   -2.4941 O   0  0  0  0  0  0  0  0  0  0  0  0
   18.0247   70.2265   -5.9314 N   0  0  0  0  0  0  0  0  0  0  0  0
   16.3644   69.1051   -4.6536 N   0  0  0  0  0  0  0  0  0  0  0  0
   16.7072   69.7160   -5.8666 C   0  0  0  0  0  0  0  0  0  0  0  0
   18.8762   70.1030   -4.8389 C   0  0  0  0  0  0  0  0  0  0  0  0
   18.5336   69.5188   -3.6889 C   0  0  0  0  0  0  0  0  0  0  0  0
   17.1748   68.9591   -3.5389 C   0  0  0  0  0  0  0  0  0  0  0  0
   15.4514   68.7425   -4.5853 H   0  0  0  0  0  0  0  0  0  0  0  0
   21.9195   73.8563   -3.3187 O   0  0  0  0  0  0  0  0  0  0  0  0
   20.9702   72.9972   -2.3320 P   0  0  2  0  0  0  0  0  0  0  0  0
   21.6420   71.5256   -2.3591 O   0  0  0  0  0  0  0  0  0  0  0  0
   19.5156   73.0208   -2.7028 O   0  0  0  0  0  0  0  0  0  0  0  0
   21.2937   73.5658   -0.8565 O   0  0  0  0  0  0  0  0  0  0  0  0
   23.2671   74.4811    0.0841 O   0  0  0  0  0  0  0  0  0  0  0  0
   21.9445   72.2923    3.3261 O   0  0  0  0  0  0  0  0  0  0  0  0
   21.7523   75.1574    3.3760 O   0  0  0  0  0  0  0  0  0  0  0  0
   21.6570   71.2264    0.6502 O   0  0  0  0  0  0  0  0  0  0  0  0
   21.8034   73.1012    2.1552 C   0  0  1  0  0  0  0  0  0  0  0  0
   22.5075   74.4360    2.4067 C   0  0  1  0  0  0  0  0  0  0  0  0
   22.4345   72.3757    0.9683 C   0  0  2  0  0  0  0  0  0  0  0  0
   22.6308   75.2500    1.1115 C   0  0  1  0  0  0  0  0  0  0  0  0
   22.5548   73.2890   -0.2530 C   0  0  1  0  0  0  0  0  0  0  0  0
   21.5454   72.7471    4.0834 H   0  0  0  0  0  0  0  0  0  0  0  0
   21.6815   74.6323    4.1887 H   0  0  0  0  0  0  0  0  0  0  0  0
   21.5885   70.6562    1.4312 H   0  0  0  0  0  0  0  0  0  0  0  0
   22.6686   77.4856    1.9538 O   0  0  0  0  0  0  0  0  0  0  0  0
   23.4677   76.5123    1.3069 C   0  0  0  0  0  0  0  0  0  0  0  0
   23.1884   78.2945    2.0850 H   0  0  0  0  0  0  0  0  0  0  0  0
 25 28  1  0
 25 24  1  0
 25 26  1  1
 25 27  2  0
  1  4  1  0
  1 24  1  0
  1  2  1  6
  1  3  2  0
  6 11  1  0
  6 12  1  0
 29 36  1  0
 29 37  1  0
  9  7  1  6
  7 13  1  0
 10  8  1  6
  8 14  1  0
 37 28  1  1
  4  5  1  0
 33 30  1  1
 30 38  1  0
 34 31  1  1
 31 39  1  0
 35 32  1  6
 32 40  1  0
 41 42  1  0
 41 43  1  0
 15 19  2  0
 16 22  2  0
 12 17  1  1
 17 19  1  0
 17 20  1  0
 18 19  1  0
 18 22  1  0
 18 23  1  0
  9 10  1  0
  9 11  1  0
 10 12  1  0
 11  5  1  1
 33 34  1  0
 33 35  1  0
 34 36  1  0
 35 37  1  0
 36 42  1  1
 20 21  2  0
 21 22  1  0
M  CHG  2   2  -1  26  -1
M  END
>  <COMPND>  (104) 
    8629 

>  <AUTHOR>  (104) 
    GENERATED BY OPEN BABEL 3.1.1

>  <MASTER>  (104) 
        0    0    0    0    0    0    0    0   58    0   58    0

>  <minimizedAffinity>  (104) 
-7.30385

>  <CNNscore>  (104) 
0.6756442189

>  <CNNaffinity>  (104) 
4.4799890518

>  <CNN_VS>  (104) 
3.0268785954

>  <CNNaffinity_variance>  (104) 
0.0264165457

$$$$
105
     RDKit          3D

 43 45  0  0  0  0  0  0  0  0999 V2000
   20.6616   70.3239   -1.4498 P   0  0  2  0  0  0  0  0  0  0  0  0
   22.2075   70.0032   -1.8029 O   0  0  0  0  0  0  0  0  0  0  0  0
   19.9383   69.2306   -0.7199 O   0  0  0  0  0  0  0  0  0  0  0  0
   20.0220   70.7635   -2.8695 O   0  0  0  0  0  0  0  0  0  0  0  0
   20.5510   71.9026   -3.5256 C   0  0  0  0  0  0  0  0  0  0  0  0
   20.0403   70.3898   -5.3212 O   0  0  0  0  0  0  0  0  0  0  0  0
   21.1558   72.4845   -7.1539 O   0  0  0  0  0  0  0  0  0  0  0  0
   18.4646   72.8403   -7.4129 O   0  0  0  0  0  0  0  0  0  0  0  0
   20.4001   72.6448   -5.9545 C   0  0  1  0  0  0  0  0  0  0  0  0
   18.9459   72.2998   -6.1992 C   0  0  2  0  0  0  0  0  0  0  0  0
   20.8267   71.5527   -4.9815 C   0  0  1  0  0  0  0  0  0  0  0  0
   18.9797   70.7809   -6.2084 C   0  0  2  0  0  0  0  0  0  0  0  0
   20.9010   73.1712   -7.7906 H   0  0  0  0  0  0  0  0  0  0  0  0
   18.4622   73.8086   -7.3573 H   0  0  0  0  0  0  0  0  0  0  0  0
   16.6698   70.4632   -7.8026 O   0  0  0  0  0  0  0  0  0  0  0  0
   14.3147   68.5519   -4.3324 O   0  0  0  0  0  0  0  0  0  0  0  0
   17.7490   70.2029   -5.7471 N   0  0  0  0  0  0  0  0  0  0  0  0
   15.4991   69.5116   -6.0735 N   0  0  0  0  0  0  0  0  0  0  0  0
   16.6480   70.0902   -6.6278 C   0  0  0  0  0  0  0  0  0  0  0  0
   17.6428   69.7548   -4.4350 C   0  0  0  0  0  0  0  0  0  0  0  0
   16.5397   69.2065   -3.9214 C   0  0  0  0  0  0  0  0  0  0  0  0
   15.3441   69.0521   -4.7752 C   0  0  0  0  0  0  0  0  0  0  0  0
   14.7193   69.4232   -6.6683 H   0  0  0  0  0  0  0  0  0  0  0  0
   20.7553   71.7226   -0.6449 O   0  0  0  0  0  0  0  0  0  0  0  0
   21.9524   72.3653    0.2308 P   0  0  2  0  0  0  0  0  0  0  0  0
   22.9232   73.0152   -0.8884 O   0  0  0  0  0  0  0  0  0  0  0  0
   22.6321   71.3931    1.1510 O   0  0  0  0  0  0  0  0  0  0  0  0
   21.2811   73.6315    0.9732 O   0  0  0  0  0  0  0  0  0  0  0  0
   22.2292   73.9045    3.1280 O   0  0  0  0  0  0  0  0  0  0  0  0
   19.2247   76.7270    3.3667 O   0  0  0  0  0  0  0  0  0  0  0  0
   21.9557   77.5807    3.1196 O   0  0  0  0  0  0  0  0  0  0  0  0
   18.7409   74.2140    2.0138 O   0  0  0  0  0  0  0  0  0  0  0  0
   20.2431   75.9597    2.7190 C   0  0  1  0  0  0  0  0  0  0  0  0
   21.5739   76.2410    3.4194 C   0  0  1  0  0  0  0  0  0  0  0  0
   19.8879   74.4771    2.8148 C   0  0  2  0  0  0  0  0  0  0  0  0
   22.6605   75.2599    2.9589 C   0  0  1  0  0  0  0  0  0  0  0  0
   21.0539   73.5877    2.3795 C   0  0  1  0  0  0  0  0  0  0  0  0
   19.4439   77.6694    3.3090 H   0  0  0  0  0  0  0  0  0  0  0  0
   21.2609   78.1899    3.4150 H   0  0  0  0  0  0  0  0  0  0  0  0
   18.0098   74.7830    2.2995 H   0  0  0  0  0  0  0  0  0  0  0  0
   24.5916   76.6132    3.3441 O   0  0  0  0  0  0  0  0  0  0  0  0
   23.9517   75.4202    3.7584 C   0  0  0  0  0  0  0  0  0  0  0  0
   25.4149   76.7284    3.8447 H   0  0  0  0  0  0  0  0  0  0  0  0
 25 28  1  0
 25 24  1  0
 25 26  1  6
 25 27  2  0
  1  4  1  0
  1 24  1  0
  1  2  1  6
  1  3  2  0
  6 11  1  0
  6 12  1  0
 29 36  1  0
 29 37  1  0
  9  7  1  6
  7 13  1  0
 10  8  1  6
  8 14  1  0
 37 28  1  6
  4  5  1  0
 33 30  1  1
 30 38  1  0
 34 31  1  6
 31 39  1  0
 35 32  1  6
 32 40  1  0
 41 42  1  0
 41 43  1  0
 15 19  2  0
 16 22  2  0
 12 17  1  1
 17 19  1  0
 17 20  1  0
 18 19  1  0
 18 22  1  0
 18 23  1  0
  9 10  1  0
  9 11  1  0
 10 12  1  0
 11  5  1  1
 33 34  1  0
 33 35  1  0
 34 36  1  0
 35 37  1  0
 36 42  1  1
 20 21  2  0
 21 22  1  0
M  CHG  2   2  -1  26  -1
M  END
>  <COMPND>  (105) 
    8629 

>  <AUTHOR>  (105) 
    GENERATED BY OPEN BABEL 3.1.1

>  <MASTER>  (105) 
        0    0    0    0    0    0    0    0   58    0   58    0

>  <minimizedAffinity>  (105) 
-7.50737

>  <CNNscore>  (105) 
0.6540563107

>  <CNNaffinity>  (105) 
4.4008054733

>  <CNN_VS>  (105) 
2.8783745766

>  <CNNaffinity_variance>  (105) 
0.2059921473

$$$$
106
     RDKit          3D

 43 45  0  0  0  0  0  0  0  0999 V2000
   21.3625   70.3506   -2.2737 P   0  0  2  0  0  0  0  0  0  0  0  0
   22.7609   69.7885   -2.8619 O   0  0  0  0  0  0  0  0  0  0  0  0
   20.9742   69.8042   -0.9313 O   0  0  0  0  0  0  0  0  0  0  0  0
   20.3053   70.0908   -3.4707 O   0  0  0  0  0  0  0  0  0  0  0  0
   19.1385   69.3372   -3.1905 C   0  0  0  0  0  0  0  0  0  0  0  0
   18.1149   71.1549   -4.3829 O   0  0  0  0  0  0  0  0  0  0  0  0
   15.5471   70.3164   -3.0811 O   0  0  0  0  0  0  0  0  0  0  0  0
   15.3169   69.2602   -5.5848 O   0  0  0  0  0  0  0  0  0  0  0  0
   16.6259   69.5097   -3.5511 C   0  0  1  0  0  0  0  0  0  0  0  0
   16.6170   69.4494   -5.0644 C   0  0  2  0  0  0  0  0  0  0  0  0
   17.9254   70.2538   -3.2701 C   0  0  1  0  0  0  0  0  0  0  0  0
   17.2050   70.7998   -5.4369 C   0  0  2  0  0  0  0  0  0  0  0  0
   14.7064   69.8617   -3.2494 H   0  0  0  0  0  0  0  0  0  0  0  0
   14.9866   68.3874   -5.3206 H   0  0  0  0  0  0  0  0  0  0  0  0
   15.9900   70.8765   -7.9856 O   0  0  0  0  0  0  0  0  0  0  0  0
   20.0602   70.6412  -10.1350 O   0  0  0  0  0  0  0  0  0  0  0  0
   17.9233   70.7604   -6.6794 N   0  0  0  0  0  0  0  0  0  0  0  0
   18.0177   70.7595   -9.0538 N   0  0  0  0  0  0  0  0  0  0  0  0
   17.2180   70.8034   -7.9046 C   0  0  0  0  0  0  0  0  0  0  0  0
   19.3116   70.6804   -6.6750 C   0  0  0  0  0  0  0  0  0  0  0  0
   20.0595   70.6381   -7.7796 C   0  0  0  0  0  0  0  0  0  0  0  0
   19.4004   70.6786   -9.1010 C   0  0  0  0  0  0  0  0  0  0  0  0
   17.5480   70.7878   -9.9189 H   0  0  0  0  0  0  0  0  0  0  0  0
   21.5696   71.9533   -2.3134 O   0  0  0  0  0  0  0  0  0  0  0  0
   20.5042   73.1643   -2.2059 P   0  0  2  0  0  0  0  0  0  0  0  0
   21.4125   74.4166   -1.7325 O   0  0  0  0  0  0  0  0  0  0  0  0
   19.3329   72.8759   -1.3122 O   0  0  0  0  0  0  0  0  0  0  0  0
   20.1120   73.5002   -3.7351 O   0  0  0  0  0  0  0  0  0  0  0  0
   20.5855   75.4918   -4.9292 O   0  0  0  0  0  0  0  0  0  0  0  0
   17.0120   74.4755   -6.7315 O   0  0  0  0  0  0  0  0  0  0  0  0
   19.4703   74.1697   -8.1845 O   0  0  0  0  0  0  0  0  0  0  0  0
   17.3659   74.0572   -3.8891 O   0  0  0  0  0  0  0  0  0  0  0  0
   18.2767   74.2249   -6.1126 C   0  0  1  0  0  0  0  0  0  0  0  0
   19.3648   74.8887   -6.9589 C   0  0  1  0  0  0  0  0  0  0  0  0
   18.2649   74.8060   -4.6999 C   0  0  2  0  0  0  0  0  0  0  0  0
   20.7122   74.8933   -6.2244 C   0  0  1  0  0  0  0  0  0  0  0  0
   19.6628   74.8085   -4.0786 C   0  0  1  0  0  0  0  0  0  0  0  0
   17.0126   74.1086   -7.6287 H   0  0  0  0  0  0  0  0  0  0  0  0
   18.6127   74.1739   -8.6382 H   0  0  0  0  0  0  0  0  0  0  0  0
   16.4846   74.0635   -4.2930 H   0  0  0  0  0  0  0  0  0  0  0  0
   21.1725   76.2623   -8.1278 O   0  0  0  0  0  0  0  0  0  0  0  0
   21.7735   75.6887   -6.9814 C   0  0  0  0  0  0  0  0  0  0  0  0
   21.8362   76.7719   -8.6193 H   0  0  0  0  0  0  0  0  0  0  0  0
 25 28  1  0
 25 24  1  0
 25 26  1  1
 25 27  2  0
  1  4  1  0
  1 24  1  0
  1  2  1  6
  1  3  2  0
  6 11  1  0
  6 12  1  0
 29 36  1  0
 29 37  1  0
  9  7  1  6
  7 13  1  0
 10  8  1  6
  8 14  1  0
 37 28  1  6
  4  5  1  0
 33 30  1  6
 30 38  1  0
 34 31  1  6
 31 39  1  0
 35 32  1  1
 32 40  1  0
 41 42  1  0
 41 43  1  0
 15 19  2  0
 16 22  2  0
 12 17  1  6
 17 19  1  0
 17 20  1  0
 18 19  1  0
 18 22  1  0
 18 23  1  0
  9 10  1  0
  9 11  1  0
 10 12  1  0
 11  5  1  6
 33 34  1  0
 33 35  1  0
 34 36  1  0
 35 37  1  0
 36 42  1  6
 20 21  2  0
 21 22  1  0
M  CHG  2   2  -1  26  -1
M  END
>  <COMPND>  (106) 
    8629 

>  <AUTHOR>  (106) 
    GENERATED BY OPEN BABEL 3.1.1

>  <MASTER>  (106) 
        0    0    0    0    0    0    0    0   58    0   58    0

>  <minimizedAffinity>  (106) 
-6.71137

>  <CNNscore>  (106) 
0.5328571796

>  <CNNaffinity>  (106) 
4.2276043892

>  <CNN_VS>  (106) 
2.2527093887

>  <CNNaffinity_variance>  (106) 
0.6084278226

$$$$
107
     RDKit          3D

 43 45  0  0  0  0  0  0  0  0999 V2000
   22.5085   73.6322   -4.1611 P   0  0  2  0  0  0  0  0  0  0  0  0
   21.5445   73.3377   -5.4266 O   0  0  0  0  0  0  0  0  0  0  0  0
   23.9294   73.9643   -4.5106 O   0  0  0  0  0  0  0  0  0  0  0  0
   22.3027   72.3416   -3.2074 O   0  0  0  0  0  0  0  0  0  0  0  0
   21.6857   71.1888   -3.7535 C   0  0  0  0  0  0  0  0  0  0  0  0
   19.3235   71.4509   -4.1074 O   0  0  0  0  0  0  0  0  0  0  0  0
   18.9587   69.5907   -1.7842 O   0  0  0  0  0  0  0  0  0  0  0  0
   18.5472   67.9541   -3.9263 O   0  0  0  0  0  0  0  0  0  0  0  0
   19.9607   69.5802   -2.7997 C   0  0  1  0  0  0  0  0  0  0  0  0
   19.3797   69.0816   -4.1064 C   0  0  2  0  0  0  0  0  0  0  0  0
   20.3038   71.0262   -3.1353 C   0  0  1  0  0  0  0  0  0  0  0  0
   18.6160   70.2999   -4.5969 C   0  0  2  0  0  0  0  0  0  0  0  0
   18.7234   68.6780   -1.5529 H   0  0  0  0  0  0  0  0  0  0  0  0
   19.0792   67.2058   -3.6139 H   0  0  0  0  0  0  0  0  0  0  0  0
   16.2879   69.7992   -6.1157 O   0  0  0  0  0  0  0  0  0  0  0  0
   18.4898   70.5820  -10.0881 O   0  0  0  0  0  0  0  0  0  0  0  0
   18.5524   70.3662   -6.0297 N   0  0  0  0  0  0  0  0  0  0  0  0
   17.3861   70.1895   -8.0924 N   0  0  0  0  0  0  0  0  0  0  0  0
   17.3344   70.0958   -6.6958 C   0  0  0  0  0  0  0  0  0  0  0  0
   19.6893   70.6966   -6.7593 C   0  0  0  0  0  0  0  0  0  0  0  0
   19.7223   70.7805   -8.0909 C   0  0  0  0  0  0  0  0  0  0  0  0
   18.4917   70.5130   -8.8630 C   0  0  0  0  0  0  0  0  0  0  0  0
   16.5494   70.0050   -8.5778 H   0  0  0  0  0  0  0  0  0  0  0  0
   21.7204   74.7995   -3.3679 O   0  0  0  0  0  0  0  0  0  0  0  0
   22.2584   75.9662   -2.3869 P   0  0  2  0  0  0  0  0  0  0  0  0
   21.1905   77.1608   -2.6104 O   0  0  0  0  0  0  0  0  0  0  0  0
   23.6873   76.3604   -2.6255 O   0  0  0  0  0  0  0  0  0  0  0  0
   21.9546   75.4210   -0.8985 O   0  0  0  0  0  0  0  0  0  0  0  0
   23.6964   75.4666    0.7079 O   0  0  0  0  0  0  0  0  0  0  0  0
   21.2276   72.6778    2.4907 O   0  0  0  0  0  0  0  0  0  0  0  0
   21.4358   75.3121    3.6155 O   0  0  0  0  0  0  0  0  0  0  0  0
   21.5495   72.6918   -0.3861 O   0  0  0  0  0  0  0  0  0  0  0  0
   21.5340   73.8476    1.7270 C   0  0  1  0  0  0  0  0  0  0  0  0
   22.3214   74.8098    2.6187 C   0  0  1  0  0  0  0  0  0  0  0  0
   22.3617   73.4452    0.5079 C   0  0  2  0  0  0  0  0  0  0  0  0
   22.9143   75.9643    1.7999 C   0  0  1  0  0  0  0  0  0  0  0  0
   22.9453   74.6655   -0.2064 C   0  0  1  0  0  0  0  0  0  0  0  0
   20.7017   72.9264    3.2660 H   0  0  0  0  0  0  0  0  0  0  0  0
   21.0679   74.5731    4.1251 H   0  0  0  0  0  0  0  0  0  0  0  0
   21.1863   71.9220    0.0780 H   0  0  0  0  0  0  0  0  0  0  0  0
   25.1116   76.2428    2.6963 O   0  0  0  0  0  0  0  0  0  0  0  0
   23.8332   76.8485    2.6401 C   0  0  0  0  0  0  0  0  0  0  0  0
   25.7071   76.7947    3.2277 H   0  0  0  0  0  0  0  0  0  0  0  0
 25 28  1  0
 25 24  1  0
 25 26  1  6
 25 27  2  0
  1  4  1  0
  1 24  1  0
  1  2  1  6
  1  3  2  0
  6 11  1  0
  6 12  1  0
 29 36  1  0
 29 37  1  0
  9  7  1  1
  7 13  1  0
 10  8  1  1
  8 14  1  0
 37 28  1  1
  4  5  1  0
 33 30  1  1
 30 38  1  0
 34 31  1  1
 31 39  1  0
 35 32  1  6
 32 40  1  0
 41 42  1  0
 41 43  1  0
 15 19  2  0
 16 22  2  0
 12 17  1  6
 17 19  1  0
 17 20  1  0
 18 19  1  0
 18 22  1  0
 18 23  1  0
  9 10  1  0
  9 11  1  0
 10 12  1  0
 11  5  1  6
 33 34  1  0
 33 35  1  0
 34 36  1  0
 35 37  1  0
 36 42  1  1
 20 21  2  0
 21 22  1  0
M  CHG  2   2  -1  26  -1
M  END
>  <COMPND>  (107) 
    8629 

>  <AUTHOR>  (107) 
    GENERATED BY OPEN BABEL 3.1.1

>  <MASTER>  (107) 
        0    0    0    0    0    0    0    0   58    0   58    0

>  <minimizedAffinity>  (107) 
-6.58467

>  <CNNscore>  (107) 
0.4796575010

>  <CNNaffinity>  (107) 
4.1622877121

>  <CNN_VS>  (107) 
1.9964724779

>  <CNNaffinity_variance>  (107) 
0.0641428083

$$$$
108
     RDKit          3D

 43 45  0  0  0  0  0  0  0  0999 V2000
   22.4829   72.3501   -2.0766 P   0  0  2  0  0  0  0  0  0  0  0  0
   23.7340   71.7343   -2.8969 O   0  0  0  0  0  0  0  0  0  0  0  0
   21.6126   73.2891   -2.8591 O   0  0  0  0  0  0  0  0  0  0  0  0
   23.1588   72.9660   -0.7419 O   0  0  0  0  0  0  0  0  0  0  0  0
   22.6528   74.1862   -0.2292 C   0  0  0  0  0  0  0  0  0  0  0  0
   22.4724   75.4905    1.7809 O   0  0  0  0  0  0  0  0  0  0  0  0
   22.1601   72.8805    3.2235 O   0  0  0  0  0  0  0  0  0  0  0  0
   19.5907   73.7789    3.0573 O   0  0  0  0  0  0  0  0  0  0  0  0
   21.6838   73.2610    1.9337 C   0  0  1  0  0  0  0  0  0  0  0  0
   20.5041   74.2016    2.0654 C   0  0  2  0  0  0  0  0  0  0  0  0
   22.7349   74.1573    1.2909 C   0  0  1  0  0  0  0  0  0  0  0  0
   21.1847   75.5132    2.4181 C   0  0  2  0  0  0  0  0  0  0  0  0
   21.5056   72.3072    3.6535 H   0  0  0  0  0  0  0  0  0  0  0  0
   19.1843   72.9408    2.7868 H   0  0  0  0  0  0  0  0  0  0  0  0
   20.9738   77.9604    3.8127 O   0  0  0  0  0  0  0  0  0  0  0  0
   18.3448   79.8225    0.5169 O   0  0  0  0  0  0  0  0  0  0  0  0
   20.4516   76.6545    1.9474 N   0  0  0  0  0  0  0  0  0  0  0  0
   19.6651   78.8857    2.1704 N   0  0  0  0  0  0  0  0  0  0  0  0
   20.4078   77.8353    2.7247 C   0  0  0  0  0  0  0  0  0  0  0  0
   19.7865   76.5960    0.7276 C   0  0  0  0  0  0  0  0  0  0  0  0
   19.0815   77.6060    0.2136 C   0  0  0  0  0  0  0  0  0  0  0  0
   18.9854   78.8756    0.9627 C   0  0  0  0  0  0  0  0  0  0  0  0
   19.6201   79.7182    2.6945 H   0  0  0  0  0  0  0  0  0  0  0  0
   21.7257   71.0325   -1.5256 O   0  0  0  0  0  0  0  0  0  0  0  0
   20.1520   70.6780   -1.4217 P   0  0  2  0  0  0  0  0  0  0  0  0
   19.5521   71.9036   -0.5525 O   0  0  0  0  0  0  0  0  0  0  0  0
   19.8638   69.3178   -0.8553 O   0  0  0  0  0  0  0  0  0  0  0  0
   19.5802   70.9168   -2.9120 O   0  0  0  0  0  0  0  0  0  0  0  0
   19.1648   68.8577   -4.0092 O   0  0  0  0  0  0  0  0  0  0  0  0
   18.6151   71.4258   -7.1956 O   0  0  0  0  0  0  0  0  0  0  0  0
   16.3416   70.1376   -6.0042 O   0  0  0  0  0  0  0  0  0  0  0  0
   20.7089   71.9467   -5.2658 O   0  0  0  0  0  0  0  0  0  0  0  0
   18.5583   71.0181   -5.8260 C   0  0  1  0  0  0  0  0  0  0  0  0
   17.6895   69.7620   -5.7352 C   0  0  1  0  0  0  0  0  0  0  0  0
   19.9746   70.7290   -5.3321 C   0  0  2  0  0  0  0  0  0  0  0  0
   17.7969   69.1131   -4.3487 C   0  0  1  0  0  0  0  0  0  0  0  0
   19.9669   70.0395   -3.9666 C   0  0  1  0  0  0  0  0  0  0  0  0
   17.7191   71.6114   -7.5153 H   0  0  0  0  0  0  0  0  0  0  0  0
   16.2877   70.5464   -6.8824 H   0  0  0  0  0  0  0  0  0  0  0  0
   20.7066   72.3733   -6.1363 H   0  0  0  0  0  0  0  0  0  0  0  0
   16.6173   67.5696   -2.9576 O   0  0  0  0  0  0  0  0  0  0  0  0
   17.0641   67.7748   -4.2852 C   0  0  0  0  0  0  0  0  0  0  0  0
   16.1488   66.7216   -2.9022 H   0  0  0  0  0  0  0  0  0  0  0  0
 25 28  1  0
 25 24  1  0
 25 26  1  1
 25 27  2  0
  1  4  1  0
  1 24  1  0
  1  2  1  6
  1  3  2  0
  6 11  1  0
  6 12  1  0
 29 36  1  0
 29 37  1  0
  9  7  1  1
  7 13  1  0
 10  8  1  1
  8 14  1  0
 37 28  1  1
  4  5  1  0
 33 30  1  6
 30 38  1  0
 34 31  1  1
 31 39  1  0
 35 32  1  1
 32 40  1  0
 41 42  1  0
 41 43  1  0
 15 19  2  0
 16 22  2  0
 12 17  1  6
 17 19  1  0
 17 20  1  0
 18 19  1  0
 18 22  1  0
 18 23  1  0
  9 10  1  0
  9 11  1  0
 10 12  1  0
 11  5  1  6
 33 34  1  0
 33 35  1  0
 34 36  1  0
 35 37  1  0
 36 42  1  6
 20 21  2  0
 21 22  1  0
M  CHG  2   2  -1  26  -1
M  END
>  <COMPND>  (108) 
    8629 

>  <AUTHOR>  (108) 
    GENERATED BY OPEN BABEL 3.1.1

>  <MASTER>  (108) 
        0    0    0    0    0    0    0    0   58    0   58    0

>  <minimizedAffinity>  (108) 
-6.93848

>  <CNNscore>  (108) 
0.4709769785

>  <CNNaffinity>  (108) 
4.2758574486

>  <CNN_VS>  (108) 
2.0138304234

>  <CNNaffinity_variance>  (108) 
0.1476783752

$$$$
109
     RDKit          3D

 43 45  0  0  0  0  0  0  0  0999 V2000
   20.9872   73.7244   -2.9863 P   0  0  2  0  0  0  0  0  0  0  0  0
   22.4751   74.3054   -2.7298 O   0  0  0  0  0  0  0  0  0  0  0  0
   19.8887   74.7446   -2.9229 O   0  0  0  0  0  0  0  0  0  0  0  0
   20.8650   72.4946   -1.9420 O   0  0  0  0  0  0  0  0  0  0  0  0
   21.8860   72.3255   -0.9742 C   0  0  0  0  0  0  0  0  0  0  0  0
   22.1260   72.6340    1.3967 O   0  0  0  0  0  0  0  0  0  0  0  0
   19.1731   72.1431    1.5705 O   0  0  0  0  0  0  0  0  0  0  0  0
   19.3356   74.8594    1.7494 O   0  0  0  0  0  0  0  0  0  0  0  0
   19.9170   72.8206    0.5591 C   0  0  1  0  0  0  0  0  0  0  0  0
   20.3625   74.1802    1.0559 C   0  0  2  0  0  0  0  0  0  0  0  0
   21.2451   72.0939    0.3873 C   0  0  1  0  0  0  0  0  0  0  0  0
   21.5343   73.8195    1.9530 C   0  0  2  0  0  0  0  0  0  0  0  0
   18.3204   72.5889    1.6978 H   0  0  0  0  0  0  0  0  0  0  0  0
   18.6134   75.0668    1.1360 H   0  0  0  0  0  0  0  0  0  0  0  0
   22.8516   74.6573    4.3069 O   0  0  0  0  0  0  0  0  0  0  0  0
   25.3198   77.8087    2.0227 O   0  0  0  0  0  0  0  0  0  0  0  0
   22.5259   74.8566    2.0022 N   0  0  0  0  0  0  0  0  0  0  0  0
   24.0796   76.2257    3.1676 N   0  0  0  0  0  0  0  0  0  0  0  0
   23.1261   75.2019    3.2355 C   0  0  0  0  0  0  0  0  0  0  0  0
   22.8942   75.5191    0.8363 C   0  0  0  0  0  0  0  0  0  0  0  0
   23.8043   76.4942    0.7887 C   0  0  0  0  0  0  0  0  0  0  0  0
   24.4787   76.9153    2.0336 C   0  0  0  0  0  0  0  0  0  0  0  0
   24.5107   76.4834    4.0146 H   0  0  0  0  0  0  0  0  0  0  0  0
   21.1297   72.9771   -4.4126 O   0  0  0  0  0  0  0  0  0  0  0  0
   21.7672   73.4742   -5.8124 P   0  0  2  0  0  0  0  0  0  0  0  0
   23.2870   72.9236   -5.7441 O   0  0  0  0  0  0  0  0  0  0  0  0
   21.6541   74.9523   -6.0497 O   0  0  0  0  0  0  0  0  0  0  0  0
   21.0525   72.5600   -6.9342 O   0  0  0  0  0  0  0  0  0  0  0  0
   18.7755   73.0585   -6.5060 O   0  0  0  0  0  0  0  0  0  0  0  0
   18.3299   70.8691   -9.9786 O   0  0  0  0  0  0  0  0  0  0  0  0
   17.9362   73.7134  -10.0352 O   0  0  0  0  0  0  0  0  0  0  0  0
   20.3089   70.0808   -8.0186 O   0  0  0  0  0  0  0  0  0  0  0  0
   18.9779   71.7804   -9.0869 C   0  0  1  0  0  0  0  0  0  0  0  0
   18.0326   72.9560   -8.8321 C   0  0  1  0  0  0  0  0  0  0  0  0
   19.3001   71.0567   -7.7809 C   0  0  2  0  0  0  0  0  0  0  0  0
   18.5425   73.8383   -7.6847 C   0  0  1  0  0  0  0  0  0  0  0  0
   19.7514   72.0313   -6.6916 C   0  0  1  0  0  0  0  0  0  0  0  0
   18.1230   71.3222  -10.8101 H   0  0  0  0  0  0  0  0  0  0  0  0
   17.6137   73.1445  -10.7519 H   0  0  0  0  0  0  0  0  0  0  0  0
   20.0110   69.4698   -8.7098 H   0  0  0  0  0  0  0  0  0  0  0  0
   16.2533   74.5201   -7.7455 O   0  0  0  0  0  0  0  0  0  0  0  0
   17.5377   74.9252   -7.3090 C   0  0  0  0  0  0  0  0  0  0  0  0
   15.6034   75.2022   -7.5129 H   0  0  0  0  0  0  0  0  0  0  0  0
 25 28  1  0
 25 24  1  0
 25 26  1  1
 25 27  2  0
  1  4  1  0
  1 24  1  0
  1  2  1  1
  1  3  2  0
  6 11  1  0
  6 12  1  0
 29 36  1  0
 29 37  1  0
  9  7  1  1
  7 13  1  0
 10  8  1  1
  8 14  1  0
 37 28  1  6
  4  5  1  0
 33 30  1  6
 30 38  1  0
 34 31  1  6
 31 39  1  0
 35 32  1  6
 32 40  1  0
 41 42  1  0
 41 43  1  0
 15 19  2  0
 16 22  2  0
 12 17  1  6
 17 19  1  0
 17 20  1  0
 18 19  1  0
 18 22  1  0
 18 23  1  0
  9 10  1  0
  9 11  1  0
 10 12  1  0
 11  5  1  6
 33 34  1  0
 33 35  1  0
 34 36  1  0
 35 37  1  0
 36 42  1  1
 20 21  2  0
 21 22  1  0
M  CHG  2   2  -1  26  -1
M  END
>  <COMPND>  (109) 
    8629 

>  <AUTHOR>  (109) 
    GENERATED BY OPEN BABEL 3.1.1

>  <MASTER>  (109) 
        0    0    0    0    0    0    0    0   58    0   58    0

>  <minimizedAffinity>  (109) 
-6.74471

>  <CNNscore>  (109) 
0.4517304003

>  <CNNaffinity>  (109) 
3.9305102825

>  <CNN_VS>  (109) 
1.7755309343

>  <CNNaffinity_variance>  (109) 
0.0337103643

$$$$
110
     RDKit          3D

 43 45  0  0  0  0  0  0  0  0999 V2000
   19.5602   69.7659   -1.9536 P   0  0  2  0  0  0  0  0  0  0  0  0
   18.7794   71.1829   -1.9466 O   0  0  0  0  0  0  0  0  0  0  0  0
   19.9388   69.2443   -0.5986 O   0  0  0  0  0  0  0  0  0  0  0  0
   20.7858   70.0028   -2.9830 O   0  0  0  0  0  0  0  0  0  0  0  0
   21.1837   71.3330   -3.2658 C   0  0  0  0  0  0  0  0  0  0  0  0
   22.8894   72.5862   -2.1284 O   0  0  0  0  0  0  0  0  0  0  0  0
   24.6791   70.2290   -2.6089 O   0  0  0  0  0  0  0  0  0  0  0  0
   23.9472   69.8981   -0.0028 O   0  0  0  0  0  0  0  0  0  0  0  0
   23.2836   70.2569   -2.3141 C   0  0  1  0  0  0  0  0  0  0  0  0
   23.0610   70.5949   -0.8548 C   0  0  2  0  0  0  0  0  0  0  0  0
   22.6797   71.4666   -3.0165 C   0  0  1  0  0  0  0  0  0  0  0  0
   23.2948   72.0960   -0.8399 C   0  0  2  0  0  0  0  0  0  0  0  0
   25.0866   69.4645   -2.1713 H   0  0  0  0  0  0  0  0  0  0  0  0
   23.7586   68.9477   -0.0474 H   0  0  0  0  0  0  0  0  0  0  0  0
   23.7162   74.7618   -0.0069 O   0  0  0  0  0  0  0  0  0  0  0  0
   20.2850   74.5386    3.0620 O   0  0  0  0  0  0  0  0  0  0  0  0
   22.5259   72.7600    0.1747 N   0  0  0  0  0  0  0  0  0  0  0  0
   22.0073   74.6486    1.5204 N   0  0  0  0  0  0  0  0  0  0  0  0
   22.8193   74.1000    0.5195 C   0  0  0  0  0  0  0  0  0  0  0  0
   21.4938   72.0836    0.8159 C   0  0  0  0  0  0  0  0  0  0  0  0
   20.7296   72.6206    1.7692 C   0  0  0  0  0  0  0  0  0  0  0  0
   20.9704   74.0165    2.1882 C   0  0  0  0  0  0  0  0  0  0  0  0
   22.1935   75.5808    1.7773 H   0  0  0  0  0  0  0  0  0  0  0  0
   18.5638   68.8061   -2.7896 O   0  0  0  0  0  0  0  0  0  0  0  0
   17.5350   69.1340   -3.9925 P   0  0  2  0  0  0  0  0  0  0  0  0
   16.5501   70.2431   -3.3464 O   0  0  0  0  0  0  0  0  0  0  0  0
   16.8318   67.9288   -4.5465 O   0  0  0  0  0  0  0  0  0  0  0  0
   18.4152   69.9498   -5.0718 O   0  0  0  0  0  0  0  0  0  0  0  0
   18.9436   72.1685   -5.7158 O   0  0  0  0  0  0  0  0  0  0  0  0
   17.5174   70.7559   -9.3244 O   0  0  0  0  0  0  0  0  0  0  0  0
   20.3333   71.2133   -8.9938 O   0  0  0  0  0  0  0  0  0  0  0  0
   16.2465   69.9462   -6.8528 O   0  0  0  0  0  0  0  0  0  0  0  0
   18.1956   70.6708   -8.0681 C   0  0  1  0  0  0  0  0  0  0  0  0
   19.3475   71.6777   -8.0758 C   0  0  1  0  0  0  0  0  0  0  0  0
   17.2097   70.9902   -6.9459 C   0  0  2  0  0  0  0  0  0  0  0  0
   19.9541   71.8363   -6.6751 C   0  0  1  0  0  0  0  0  0  0  0  0
   17.9215   71.1760   -5.6047 C   0  0  1  0  0  0  0  0  0  0  0  0
   18.1377   70.5537  -10.0412 H   0  0  0  0  0  0  0  0  0  0  0  0
   19.9373   71.1170   -9.8742 H   0  0  0  0  0  0  0  0  0  0  0  0
   15.8027   69.8386   -7.7079 H   0  0  0  0  0  0  0  0  0  0  0  0
   22.2390   72.4210   -7.0577 O   0  0  0  0  0  0  0  0  0  0  0  0
   20.9983   72.9495   -6.6267 C   0  0  0  0  0  0  0  0  0  0  0  0
   22.9132   73.1185   -7.0324 H   0  0  0  0  0  0  0  0  0  0  0  0
 25 28  1  0
 25 24  1  0
 25 26  1  1
 25 27  2  0
  1  4  1  0
  1 24  1  0
  1  2  1  1
  1  3  2  0
  6 11  1  0
  6 12  1  0
 29 36  1  0
 29 37  1  0
  9  7  1  1
  7 13  1  0
 10  8  1  1
  8 14  1  0
 37 28  1  6
  4  5  1  0
 33 30  1  6
 30 38  1  0
 34 31  1  6
 31 39  1  0
 35 32  1  1
 32 40  1  0
 41 42  1  0
 41 43  1  0
 15 19  2  0
 16 22  2  0
 12 17  1  1
 17 19  1  0
 17 20  1  0
 18 19  1  0
 18 22  1  0
 18 23  1  0
  9 10  1  0
  9 11  1  0
 10 12  1  0
 11  5  1  1
 33 34  1  0
 33 35  1  0
 34 36  1  0
 35 37  1  0
 36 42  1  6
 20 21  2  0
 21 22  1  0
M  CHG  2   2  -1  26  -1
M  END
>  <COMPND>  (110) 
    8629 

>  <AUTHOR>  (110) 
    GENERATED BY OPEN BABEL 3.1.1

>  <MASTER>  (110) 
        0    0    0    0    0    0    0    0   58    0   58    0

>  <minimizedAffinity>  (110) 
-8.84932

>  <CNNscore>  (110) 
0.4411593080

>  <CNNaffinity>  (110) 
4.1980414391

>  <CNN_VS>  (110) 
1.8520050049

>  <CNNaffinity_variance>  (110) 
0.2718669474

$$$$
111
     RDKit          3D

 43 45  0  0  0  0  0  0  0  0999 V2000
   19.5056   69.9691   -2.2197 P   0  0  2  0  0  0  0  0  0  0  0  0
   19.9579   69.2854   -0.8249 O   0  0  0  0  0  0  0  0  0  0  0  0
   20.6253   70.2597   -3.1754 O   0  0  0  0  0  0  0  0  0  0  0  0
   18.6258   71.2464   -1.7589 O   0  0  0  0  0  0  0  0  0  0  0  0
   18.9137   72.5088   -2.3345 C   0  0  0  0  0  0  0  0  0  0  0  0
   20.2830   72.7893   -0.3799 O   0  0  0  0  0  0  0  0  0  0  0  0
   19.9275   75.7391   -0.7835 O   0  0  0  0  0  0  0  0  0  0  0  0
   22.4191   75.2961   -1.7997 O   0  0  0  0  0  0  0  0  0  0  0  0
   20.0611   74.7050   -1.7571 C   0  0  1  0  0  0  0  0  0  0  0  0
   21.4964   74.2261   -1.8221 C   0  0  2  0  0  0  0  0  0  0  0  0
   19.3375   73.4708   -1.2331 C   0  0  1  0  0  0  0  0  0  0  0  0
   21.5912   73.3464   -0.5871 C   0  0  2  0  0  0  0  0  0  0  0  0
   20.3816   76.5379   -1.0961 H   0  0  0  0  0  0  0  0  0  0  0  0
   22.3195   75.8261   -2.6059 H   0  0  0  0  0  0  0  0  0  0  0  0
   22.4484   71.6467    1.4996 O   0  0  0  0  0  0  0  0  0  0  0  0
   25.2122   69.2725   -1.3226 O   0  0  0  0  0  0  0  0  0  0  0  0
   22.5339   72.2755   -0.7486 N   0  0  0  0  0  0  0  0  0  0  0  0
   23.8237   70.4658    0.0926 N   0  0  0  0  0  0  0  0  0  0  0  0
   22.8981   71.4815    0.3638 C   0  0  0  0  0  0  0  0  0  0  0  0
   23.0864   72.0213   -1.9992 C   0  0  0  0  0  0  0  0  0  0  0  0
   23.9688   71.0496   -2.2409 C   0  0  0  0  0  0  0  0  0  0  0  0
   24.4023   70.1745   -1.1326 C   0  0  0  0  0  0  0  0  0  0  0  0
   24.0926   69.9001    0.8526 H   0  0  0  0  0  0  0  0  0  0  0  0
   18.3901   68.9434   -2.7823 O   0  0  0  0  0  0  0  0  0  0  0  0
   17.3780   69.0596   -4.0373 P   0  0  2  0  0  0  0  0  0  0  0  0
   16.3206   70.1864   -3.5582 O   0  0  0  0  0  0  0  0  0  0  0  0
   16.7526   67.7574   -4.4461 O   0  0  0  0  0  0  0  0  0  0  0  0
   18.2433   69.7784   -5.1947 O   0  0  0  0  0  0  0  0  0  0  0  0
   18.9851   71.9921   -5.6024 O   0  0  0  0  0  0  0  0  0  0  0  0
   17.6811   71.0234   -9.3987 O   0  0  0  0  0  0  0  0  0  0  0  0
   20.4981   71.2110   -8.8719 O   0  0  0  0  0  0  0  0  0  0  0  0
   16.1974   70.1125   -7.0861 O   0  0  0  0  0  0  0  0  0  0  0  0
   18.2702   70.7726   -8.1199 C   0  0  1  0  0  0  0  0  0  0  0  0
   19.4963   71.6756   -7.9714 C   0  0  1  0  0  0  0  0  0  0  0  0
   17.2442   71.0755   -7.0296 C   0  0  2  0  0  0  0  0  0  0  0  0
   20.0244   71.6602   -6.5305 C   0  0  1  0  0  0  0  0  0  0  0  0
   17.8828   71.0835   -5.6395 C   0  0  1  0  0  0  0  0  0  0  0  0
   18.3273   70.8325  -10.0955 H   0  0  0  0  0  0  0  0  0  0  0  0
   20.1517   71.2252   -9.7780 H   0  0  0  0  0  0  0  0  0  0  0  0
   15.8010   70.1174   -7.9709 H   0  0  0  0  0  0  0  0  0  0  0  0
   22.2628   72.2732   -7.0987 O   0  0  0  0  0  0  0  0  0  0  0  0
   21.1483   72.6729   -6.3225 C   0  0  0  0  0  0  0  0  0  0  0  0
   22.9859   72.9087   -6.9764 H   0  0  0  0  0  0  0  0  0  0  0  0
 25 28  1  0
 25 24  1  0
 25 26  1  1
 25 27  2  0
  1  4  1  0
  1 24  1  0
  1  2  1  1
  1  3  2  0
  6 11  1  0
  6 12  1  0
 29 36  1  0
 29 37  1  0
  9  7  1  1
  7 13  1  0
 10  8  1  1
  8 14  1  0
 37 28  1  6
  4  5  1  0
 33 30  1  6
 30 38  1  0
 34 31  1  6
 31 39  1  0
 35 32  1  1
 32 40  1  0
 41 42  1  0
 41 43  1  0
 15 19  2  0
 16 22  2  0
 12 17  1  6
 17 19  1  0
 17 20  1  0
 18 19  1  0
 18 22  1  0
 18 23  1  0
  9 10  1  0
  9 11  1  0
 10 12  1  0
 11  5  1  6
 33 34  1  0
 33 35  1  0
 34 36  1  0
 35 37  1  0
 36 42  1  6
 20 21  2  0
 21 22  1  0
M  CHG  2   2  -1  26  -1
M  END
>  <COMPND>  (111) 
    8629 

>  <AUTHOR>  (111) 
    GENERATED BY OPEN BABEL 3.1.1

>  <MASTER>  (111) 
        0    0    0    0    0    0    0    0   58    0   58    0

>  <minimizedAffinity>  (111) 
-8.26768

>  <CNNscore>  (111) 
0.4206900895

>  <CNNaffinity>  (111) 
4.2341146469

>  <CNN_VS>  (111) 
1.7812501192

>  <CNNaffinity_variance>  (111) 
0.3861837685

$$$$
112
     RDKit          3D

 43 45  0  0  0  0  0  0  0  0999 V2000
   19.6014   75.4458   -2.8983 P   0  0  2  0  0  0  0  0  0  0  0  0
   20.5518   76.7104   -3.2374 O   0  0  0  0  0  0  0  0  0  0  0  0
   18.1386   75.7628   -2.7922 O   0  0  0  0  0  0  0  0  0  0  0  0
   20.2767   74.7949   -1.5799 O   0  0  0  0  0  0  0  0  0  0  0  0
   20.0152   75.3916   -0.3216 C   0  0  0  0  0  0  0  0  0  0  0  0
   19.4548   73.0745   -0.0205 O   0  0  0  0  0  0  0  0  0  0  0  0
   18.8593   73.7826    2.8317 O   0  0  0  0  0  0  0  0  0  0  0  0
   21.3318   72.6455    3.0053 O   0  0  0  0  0  0  0  0  0  0  0  0
   19.8744   74.2924    1.9686 C   0  0  1  0  0  0  0  0  0  0  0  0
   20.9745   73.2674    1.7878 C   0  0  2  0  0  0  0  0  0  0  0  0
   19.2924   74.3856    0.5636 C   0  0  1  0  0  0  0  0  0  0  0  0
   20.3447   72.3001    0.8000 C   0  0  2  0  0  0  0  0  0  0  0  0
   19.2074   73.7145    3.7351 H   0  0  0  0  0  0  0  0  0  0  0  0
   21.7279   73.3017    3.5997 H   0  0  0  0  0  0  0  0  0  0  0  0
   19.9376   69.8481   -0.5416 O   0  0  0  0  0  0  0  0  0  0  0  0
   24.1548   69.9534   -2.3976 O   0  0  0  0  0  0  0  0  0  0  0  0
   21.3193   71.6639   -0.0407 N   0  0  0  0  0  0  0  0  0  0  0  0
   22.0377   69.9026   -1.4648 N   0  0  0  0  0  0  0  0  0  0  0  0
   21.0154   70.4330   -0.6676 C   0  0  0  0  0  0  0  0  0  0  0  0
   22.5601   72.2602   -0.2369 C   0  0  0  0  0  0  0  0  0  0  0  0
   23.5247   71.7409   -0.9992 C   0  0  0  0  0  0  0  0  0  0  0  0
   23.2879   70.4567   -1.6898 C   0  0  0  0  0  0  0  0  0  0  0  0
   21.8487   69.0454   -1.9112 H   0  0  0  0  0  0  0  0  0  0  0  0
   19.9777   74.3866   -4.0600 O   0  0  0  0  0  0  0  0  0  0  0  0
   19.9246   72.7711   -4.0813 P   0  0  2  0  0  0  0  0  0  0  0  0
   18.6552   72.4292   -3.1383 O   0  0  0  0  0  0  0  0  0  0  0  0
   21.2043   72.1078   -3.6616 O   0  0  0  0  0  0  0  0  0  0  0  0
   19.4360   72.3982   -5.5737 O   0  0  0  0  0  0  0  0  0  0  0  0
   18.8741   70.0990   -5.4519 O   0  0  0  0  0  0  0  0  0  0  0  0
   17.9168   70.8036   -9.4064 O   0  0  0  0  0  0  0  0  0  0  0  0
   15.8164   70.4228   -7.4852 O   0  0  0  0  0  0  0  0  0  0  0  0
   20.2479   72.0616   -8.2388 O   0  0  0  0  0  0  0  0  0  0  0  0
   18.0397   71.1253   -8.0183 C   0  0  1  0  0  0  0  0  0  0  0  0
   17.1869   70.1374   -7.2198 C   0  0  1  0  0  0  0  0  0  0  0  0
   19.5079   71.0208   -7.6097 C   0  0  2  0  0  0  0  0  0  0  0  0
   17.4741   70.2468   -5.7162 C   0  0  1  0  0  0  0  0  0  0  0  0
   19.6780   71.0925   -6.0912 C   0  0  1  0  0  0  0  0  0  0  0  0
   16.9870   70.8685   -9.6723 H   0  0  0  0  0  0  0  0  0  0  0  0
   15.6484   70.3506   -8.4380 H   0  0  0  0  0  0  0  0  0  0  0  0
   20.1322   72.0051   -9.1996 H   0  0  0  0  0  0  0  0  0  0  0  0
   15.4056   69.5624   -4.7356 O   0  0  0  0  0  0  0  0  0  0  0  0
   16.7523   69.1649   -4.9159 C   0  0  0  0  0  0  0  0  0  0  0  0
   14.9338   68.8831   -4.2279 H   0  0  0  0  0  0  0  0  0  0  0  0
 25 28  1  0
 25 24  1  0
 25 26  1  1
 25 27  2  0
  1  4  1  0
  1 24  1  0
  1  2  1  6
  1  3  2  0
  6 11  1  0
  6 12  1  0
 29 36  1  0
 29 37  1  0
  9  7  1  1
  7 13  1  0
 10  8  1  1
  8 14  1  0
 37 28  1  1
  4  5  1  0
 33 30  1  6
 30 38  1  0
 34 31  1  1
 31 39  1  0
 35 32  1  6
 32 40  1  0
 41 42  1  0
 41 43  1  0
 15 19  2  0
 16 22  2  0
 12 17  1  6
 17 19  1  0
 17 20  1  0
 18 19  1  0
 18 22  1  0
 18 23  1  0
  9 10  1  0
  9 11  1  0
 10 12  1  0
 11  5  1  6
 33 34  1  0
 33 35  1  0
 34 36  1  0
 35 37  1  0
 36 42  1  1
 20 21  2  0
 21 22  1  0
M  CHG  2   2  -1  26  -1
M  END
>  <COMPND>  (112) 
    8629 

>  <AUTHOR>  (112) 
    GENERATED BY OPEN BABEL 3.1.1

>  <MASTER>  (112) 
        0    0    0    0    0    0    0    0   58    0   58    0

>  <minimizedAffinity>  (112) 
-7.59542

>  <CNNscore>  (112) 
0.4147005379

>  <CNNaffinity>  (112) 
4.0523843765

>  <CNN_VS>  (112) 
1.6805260181

>  <CNNaffinity_variance>  (112) 
0.7098846436

$$$$
113
     RDKit          3D

 43 45  0  0  0  0  0  0  0  0999 V2000
   22.6446   71.8443   -3.3692 P   0  0  2  0  0  0  0  0  0  0  0  0
   22.6162   73.3176   -2.7015 O   0  0  0  0  0  0  0  0  0  0  0  0
   23.9846   71.1692   -3.3582 O   0  0  0  0  0  0  0  0  0  0  0  0
   21.9816   72.0664   -4.8284 O   0  0  0  0  0  0  0  0  0  0  0  0
   21.3337   73.2977   -5.0963 C   0  0  0  0  0  0  0  0  0  0  0  0
   19.9740   71.9119   -6.5121 O   0  0  0  0  0  0  0  0  0  0  0  0
   19.2998   74.4228   -8.0060 O   0  0  0  0  0  0  0  0  0  0  0  0
   17.0957   74.0506   -6.4439 O   0  0  0  0  0  0  0  0  0  0  0  0
   19.5145   74.2347   -6.6082 C   0  0  1  0  0  0  0  0  0  0  0  0
   18.3271   73.5321   -5.9837 C   0  0  2  0  0  0  0  0  0  0  0  0
   20.6210   73.2012   -6.4383 C   0  0  1  0  0  0  0  0  0  0  0  0
   18.5518   72.0920   -6.4123 C   0  0  2  0  0  0  0  0  0  0  0  0
   18.5974   75.0791   -8.1396 H   0  0  0  0  0  0  0  0  0  0  0  0
   16.9995   74.9685   -6.1456 H   0  0  0  0  0  0  0  0  0  0  0  0
   16.7625   70.0042   -7.0584 O   0  0  0  0  0  0  0  0  0  0  0  0
   16.6067   68.5396   -2.6913 O   0  0  0  0  0  0  0  0  0  0  0  0
   18.0279   71.1501   -5.4638 N   0  0  0  0  0  0  0  0  0  0  0  0
   16.6865   69.2766   -4.8834 N   0  0  0  0  0  0  0  0  0  0  0  0
   17.1348   70.1401   -5.8911 C   0  0  0  0  0  0  0  0  0  0  0  0
   18.4005   71.2332   -4.1266 C   0  0  0  0  0  0  0  0  0  0  0  0
   17.9631   70.4028   -3.1778 C   0  0  0  0  0  0  0  0  0  0  0  0
   17.0269   69.3193   -3.5406 C   0  0  0  0  0  0  0  0  0  0  0  0
   16.0632   68.5652   -5.1576 H   0  0  0  0  0  0  0  0  0  0  0  0
   21.4877   71.0564   -2.5606 O   0  0  0  0  0  0  0  0  0  0  0  0
   21.2844   70.8019   -0.9773 P   0  0  2  0  0  0  0  0  0  0  0  0
   22.7852   70.4989   -0.4545 O   0  0  0  0  0  0  0  0  0  0  0  0
   20.2861   69.7296   -0.6496 O   0  0  0  0  0  0  0  0  0  0  0  0
   20.9277   72.2552   -0.3725 O   0  0  0  0  0  0  0  0  0  0  0  0
   22.4538   73.4485    0.9926 O   0  0  0  0  0  0  0  0  0  0  0  0
   18.9303   75.1798    2.2727 O   0  0  0  0  0  0  0  0  0  0  0  0
   20.7316   76.6864    0.6194 O   0  0  0  0  0  0  0  0  0  0  0  0
   19.0154   72.3478    1.6792 O   0  0  0  0  0  0  0  0  0  0  0  0
   19.8222   74.5892    1.3234 C   0  0  1  0  0  0  0  0  0  0  0  0
   21.0812   75.4550    1.2452 C   0  0  1  0  0  0  0  0  0  0  0  0
   20.1706   73.1736    1.7795 C   0  0  2  0  0  0  0  0  0  0  0  0
   22.1905   74.7493    0.4536 C   0  0  1  0  0  0  0  0  0  0  0  0
   21.3180   72.5821    0.9587 C   0  0  1  0  0  0  0  0  0  0  0  0
   18.7048   76.0787    1.9887 H   0  0  0  0  0  0  0  0  0  0  0  0
   20.0300   77.1216    1.1288 H   0  0  0  0  0  0  0  0  0  0  0  0
   18.2964   72.7328    2.2033 H   0  0  0  0  0  0  0  0  0  0  0  0
   23.3860   76.5594    1.4552 O   0  0  0  0  0  0  0  0  0  0  0  0
   23.5056   75.5245    0.4966 C   0  0  0  0  0  0  0  0  0  0  0  0
   24.2158   77.0611    1.4937 H   0  0  0  0  0  0  0  0  0  0  0  0
 25 28  1  0
 25 24  1  0
 25 26  1  1
 25 27  2  0
  1  4  1  0
  1 24  1  0
  1  2  1  1
  1  3  2  0
  6 11  1  0
  6 12  1  0
 29 36  1  0
 29 37  1  0
  9  7  1  6
  7 13  1  0
 10  8  1  6
  8 14  1  0
 37 28  1  6
  4  5  1  0
 33 30  1  1
 30 38  1  0
 34 31  1  6
 31 39  1  0
 35 32  1  6
 32 40  1  0
 41 42  1  0
 41 43  1  0
 15 19  2  0
 16 22  2  0
 12 17  1  1
 17 19  1  0
 17 20  1  0
 18 19  1  0
 18 22  1  0
 18 23  1  0
  9 10  1  0
  9 11  1  0
 10 12  1  0
 11  5  1  1
 33 34  1  0
 33 35  1  0
 34 36  1  0
 35 37  1  0
 36 42  1  1
 20 21  2  0
 21 22  1  0
M  CHG  2   2  -1  26  -1
M  END
>  <COMPND>  (113) 
    8629 

>  <AUTHOR>  (113) 
    GENERATED BY OPEN BABEL 3.1.1

>  <MASTER>  (113) 
        0    0    0    0    0    0    0    0   58    0   58    0

>  <minimizedAffinity>  (113) 
-6.95358

>  <CNNscore>  (113) 
0.4129094481

>  <CNNaffinity>  (113) 
4.1067590714

>  <CNN_VS>  (113) 
1.6957195997

>  <CNNaffinity_variance>  (113) 
0.1511087120

$$$$
114
     RDKit          3D

 43 45  0  0  0  0  0  0  0  0999 V2000
   21.2814   75.2413   -6.1573 P   0  0  2  0  0  0  0  0  0  0  0  0
   20.7524   76.4021   -5.1623 O   0  0  0  0  0  0  0  0  0  0  0  0
   22.5482   75.5659   -6.8930 O   0  0  0  0  0  0  0  0  0  0  0  0
   19.9969   74.9080   -7.0830 O   0  0  0  0  0  0  0  0  0  0  0  0
   19.1564   73.8298   -6.7104 C   0  0  0  0  0  0  0  0  0  0  0  0
   19.2910   71.5000   -7.2828 O   0  0  0  0  0  0  0  0  0  0  0  0
   18.0008   72.2562   -9.8817 O   0  0  0  0  0  0  0  0  0  0  0  0
   15.9139   71.2278   -8.4592 O   0  0  0  0  0  0  0  0  0  0  0  0
   17.7771   72.7853   -8.5758 C   0  0  1  0  0  0  0  0  0  0  0  0
   16.9851   71.8026   -7.7389 C   0  0  2  0  0  0  0  0  0  0  0  0
   19.1149   72.8178   -7.8473 C   0  0  1  0  0  0  0  0  0  0  0  0
   18.0470   70.7847   -7.3590 C   0  0  2  0  0  0  0  0  0  0  0  0
   17.1606   72.2261  -10.3665 H   0  0  0  0  0  0  0  0  0  0  0  0
   15.2652   71.9150   -8.6775 H   0  0  0  0  0  0  0  0  0  0  0  0
   19.9648   70.4785   -5.3081 O   0  0  0  0  0  0  0  0  0  0  0  0
   16.9302   68.4020   -2.5294 O   0  0  0  0  0  0  0  0  0  0  0  0
   17.7852   70.1680   -6.0892 N   0  0  0  0  0  0  0  0  0  0  0  0
   18.4522   69.4450   -3.9261 N   0  0  0  0  0  0  0  0  0  0  0  0
   18.8181   70.0632   -5.1286 C   0  0  0  0  0  0  0  0  0  0  0  0
   16.5158   69.6754   -5.8066 C   0  0  0  0  0  0  0  0  0  0  0  0
   16.1835   69.0874   -4.6555 C   0  0  0  0  0  0  0  0  0  0  0  0
   17.2046   68.9381   -3.5986 C   0  0  0  0  0  0  0  0  0  0  0  0
   19.1556   69.3605   -3.2422 H   0  0  0  0  0  0  0  0  0  0  0  0
   21.3772   73.9495   -5.1903 O   0  0  0  0  0  0  0  0  0  0  0  0
   22.5443   73.4609   -4.1842 P   0  0  2  0  0  0  0  0  0  0  0  0
   23.0030   74.8304   -3.4551 O   0  0  0  0  0  0  0  0  0  0  0  0
   23.6600   72.7119   -4.8535 O   0  0  0  0  0  0  0  0  0  0  0  0
   21.7726   72.6274   -3.0376 O   0  0  0  0  0  0  0  0  0  0  0  0
   22.8248   72.4302   -0.9232 O   0  0  0  0  0  0  0  0  0  0  0  0
   20.1162   69.3299   -0.6038 O   0  0  0  0  0  0  0  0  0  0  0  0
   19.7026   71.7356    0.9093 O   0  0  0  0  0  0  0  0  0  0  0  0
   21.4316   69.8435   -3.1307 O   0  0  0  0  0  0  0  0  0  0  0  0
   20.5783   70.6190   -1.0161 C   0  0  1  0  0  0  0  0  0  0  0  0
   20.9204   71.4289    0.2361 C   0  0  1  0  0  0  0  0  0  0  0  0
   21.8127   70.4477   -1.8994 C   0  0  2  0  0  0  0  0  0  0  0  0
   21.6703   72.7180   -0.1257 C   0  0  1  0  0  0  0  0  0  0  0  0
   22.5117   71.7836   -2.1584 C   0  0  1  0  0  0  0  0  0  0  0  0
   19.3322   69.4316   -0.0429 H   0  0  0  0  0  0  0  0  0  0  0  0
   19.2386   70.9132    1.1317 H   0  0  0  0  0  0  0  0  0  0  0  0
   20.9906   68.9986   -2.9532 H   0  0  0  0  0  0  0  0  0  0  0  0
   22.3382   72.5248    2.1603 O   0  0  0  0  0  0  0  0  0  0  0  0
   22.1593   73.4625    1.1148 C   0  0  0  0  0  0  0  0  0  0  0  0
   22.6496   72.9844    2.9562 H   0  0  0  0  0  0  0  0  0  0  0  0
 25 28  1  0
 25 24  1  0
 25 26  1  1
 25 27  2  0
  1  4  1  0
  1 24  1  0
  1  2  1  1
  1  3  2  0
  6 11  1  0
  6 12  1  0
 29 36  1  0
 29 37  1  0
  9  7  1  6
  7 13  1  0
 10  8  1  6
  8 14  1  0
 37 28  1  6
  4  5  1  0
 33 30  1  1
 30 38  1  0
 34 31  1  6
 31 39  1  0
 35 32  1  6
 32 40  1  0
 41 42  1  0
 41 43  1  0
 15 19  2  0
 16 22  2  0
 12 17  1  1
 17 19  1  0
 17 20  1  0
 18 19  1  0
 18 22  1  0
 18 23  1  0
  9 10  1  0
  9 11  1  0
 10 12  1  0
 11  5  1  1
 33 34  1  0
 33 35  1  0
 34 36  1  0
 35 37  1  0
 36 42  1  1
 20 21  2  0
 21 22  1  0
M  CHG  2   2  -1  26  -1
M  END
>  <COMPND>  (114) 
    8629 

>  <AUTHOR>  (114) 
    GENERATED BY OPEN BABEL 3.1.1

>  <MASTER>  (114) 
        0    0    0    0    0    0    0    0   58    0   58    0

>  <minimizedAffinity>  (114) 
-8.31877

>  <CNNscore>  (114) 
0.3911961913

>  <CNNaffinity>  (114) 
4.1524119377

>  <CNN_VS>  (114) 
1.6244077682

>  <CNNaffinity_variance>  (114) 
0.6517263055

$$$$
115
     RDKit          3D

 43 45  0  0  0  0  0  0  0  0999 V2000
   18.1812   73.2894   -2.3515 P   0  0  2  0  0  0  0  0  0  0  0  0
   17.7812   74.7767   -1.8560 O   0  0  0  0  0  0  0  0  0  0  0  0
   17.0741   72.5229   -3.0135 O   0  0  0  0  0  0  0  0  0  0  0  0
   18.8231   72.6011   -1.0354 O   0  0  0  0  0  0  0  0  0  0  0  0
   20.2164   72.7339   -0.8144 C   0  0  0  0  0  0  0  0  0  0  0  0
   19.8328   70.3622   -0.8566 O   0  0  0  0  0  0  0  0  0  0  0  0
   22.7966   70.0656   -0.5119 O   0  0  0  0  0  0  0  0  0  0  0  0
   22.4610   69.6188   -3.1810 O   0  0  0  0  0  0  0  0  0  0  0  0
   22.0677   71.0443   -1.2510 C   0  0  1  0  0  0  0  0  0  0  0  0
   21.5152   70.4378   -2.5240 C   0  0  2  0  0  0  0  0  0  0  0  0
   20.7970   71.3679   -0.4753 C   0  0  1  0  0  0  0  0  0  0  0  0
   20.3214   69.6532   -2.0069 C   0  0  2  0  0  0  0  0  0  0  0  0
   23.6128   69.8431   -0.9875 H   0  0  0  0  0  0  0  0  0  0  0  0
   23.2008   70.1639   -3.4913 H   0  0  0  0  0  0  0  0  0  0  0  0
   20.4802   70.6609   -4.6408 O   0  0  0  0  0  0  0  0  0  0  0  0
   16.2164   69.2261   -5.6423 O   0  0  0  0  0  0  0  0  0  0  0  0
   19.2677   69.5564   -2.9773 N   0  0  0  0  0  0  0  0  0  0  0  0
   18.3571   69.9455   -5.1374 N   0  0  0  0  0  0  0  0  0  0  0  0
   19.4483   70.0961   -4.2722 C   0  0  0  0  0  0  0  0  0  0  0  0
   18.0716   68.9316   -2.6415 C   0  0  0  0  0  0  0  0  0  0  0  0
   17.0401   68.7973   -3.4778 C   0  0  0  0  0  0  0  0  0  0  0  0
   17.1473   69.3337   -4.8499 C   0  0  0  0  0  0  0  0  0  0  0  0
   18.4600   70.3141   -6.0448 H   0  0  0  0  0  0  0  0  0  0  0  0
   19.4711   73.5533   -3.2893 O   0  0  0  0  0  0  0  0  0  0  0  0
   19.6026   74.2495   -4.7422 P   0  0  2  0  0  0  0  0  0  0  0  0
   21.2008   74.2911   -4.9904 O   0  0  0  0  0  0  0  0  0  0  0  0
   18.9244   75.5847   -4.8485 O   0  0  0  0  0  0  0  0  0  0  0  0
   19.0579   73.1383   -5.7784 O   0  0  0  0  0  0  0  0  0  0  0  0
   19.8126   72.5435   -7.9448 O   0  0  0  0  0  0  0  0  0  0  0  0
   15.7454   72.1320   -8.5269 O   0  0  0  0  0  0  0  0  0  0  0  0
   17.3987   69.7893   -8.3648 O   0  0  0  0  0  0  0  0  0  0  0  0
   16.7586   74.2971   -6.8943 O   0  0  0  0  0  0  0  0  0  0  0  0
   16.9687   72.0706   -7.7887 C   0  0  1  0  0  0  0  0  0  0  0  0
   17.9159   71.1092   -8.5093 C   0  0  1  0  0  0  0  0  0  0  0  0
   17.5773   73.4696   -7.7138 C   0  0  2  0  0  0  0  0  0  0  0  0
   19.3352   71.1931   -7.9318 C   0  0  1  0  0  0  0  0  0  0  0  0
   19.0073   73.4352   -7.1714 C   0  0  1  0  0  0  0  0  0  0  0  0
   15.3535   71.2469   -8.5777 H   0  0  0  0  0  0  0  0  0  0  0  0
   16.5020   69.7501   -8.7329 H   0  0  0  0  0  0  0  0  0  0  0  0
   15.8562   74.3108   -7.2483 H   0  0  0  0  0  0  0  0  0  0  0  0
   21.6093   70.9574   -8.6259 O   0  0  0  0  0  0  0  0  0  0  0  0
   20.3305   70.3604   -8.7369 C   0  0  0  0  0  0  0  0  0  0  0  0
   22.2531   70.4379   -9.1332 H   0  0  0  0  0  0  0  0  0  0  0  0
 25 28  1  0
 25 24  1  0
 25 26  1  6
 25 27  2  0
  1  4  1  0
  1 24  1  0
  1  2  1  1
  1  3  2  0
  6 11  1  0
  6 12  1  0
 29 36  1  0
 29 37  1  0
  9  7  1  1
  7 13  1  0
 10  8  1  1
  8 14  1  0
 37 28  1  1
  4  5  1  0
 33 30  1  6
 30 38  1  0
 34 31  1  1
 31 39  1  0
 35 32  1  1
 32 40  1  0
 41 42  1  0
 41 43  1  0
 15 19  2  0
 16 22  2  0
 12 17  1  6
 17 19  1  0
 17 20  1  0
 18 19  1  0
 18 22  1  0
 18 23  1  0
  9 10  1  0
  9 11  1  0
 10 12  1  0
 11  5  1  6
 33 34  1  0
 33 35  1  0
 34 36  1  0
 35 37  1  0
 36 42  1  6
 20 21  2  0
 21 22  1  0
M  CHG  2   2  -1  26  -1
M  END
>  <COMPND>  (115) 
    8629 

>  <AUTHOR>  (115) 
    GENERATED BY OPEN BABEL 3.1.1

>  <MASTER>  (115) 
        0    0    0    0    0    0    0    0   58    0   58    0

>  <minimizedAffinity>  (115) 
-7.12503

>  <CNNscore>  (115) 
0.3410519361

>  <CNNaffinity>  (115) 
3.9255824089

>  <CNN_VS>  (115) 
1.3388274908

>  <CNNaffinity_variance>  (115) 
1.0068362951

$$$$
116
     RDKit          3D

 43 45  0  0  0  0  0  0  0  0999 V2000
   20.5854   75.2151   -2.8221 P   0  0  2  0  0  0  0  0  0  0  0  0
   21.9991   74.8783   -2.1112 O   0  0  0  0  0  0  0  0  0  0  0  0
   20.5989   76.4150   -3.7229 O   0  0  0  0  0  0  0  0  0  0  0  0
   19.5358   75.2718   -1.5920 O   0  0  0  0  0  0  0  0  0  0  0  0
   20.0443   75.3827   -0.2740 C   0  0  0  0  0  0  0  0  0  0  0  0
   19.4808   73.0679    0.0386 O   0  0  0  0  0  0  0  0  0  0  0  0
   18.9113   73.7856    2.8937 O   0  0  0  0  0  0  0  0  0  0  0  0
   21.3825   72.6431    3.0496 O   0  0  0  0  0  0  0  0  0  0  0  0
   19.9202   74.2905    2.0205 C   0  0  1  0  0  0  0  0  0  0  0  0
   21.0163   73.2623    1.8334 C   0  0  2  0  0  0  0  0  0  0  0  0
   19.3266   74.3810    0.6202 C   0  0  1  0  0  0  0  0  0  0  0  0
   20.3758   72.2937    0.8538 C   0  0  2  0  0  0  0  0  0  0  0  0
   19.2669   73.7193    3.7942 H   0  0  0  0  0  0  0  0  0  0  0  0
   21.7852   73.3000    3.6387 H   0  0  0  0  0  0  0  0  0  0  0  0
   19.9146   69.8918   -0.5592 O   0  0  0  0  0  0  0  0  0  0  0  0
   24.1548   69.9257   -2.3651 O   0  0  0  0  0  0  0  0  0  0  0  0
   21.3416   71.6527    0.0066 N   0  0  0  0  0  0  0  0  0  0  0  0
   22.0262   69.9107   -1.4574 N   0  0  0  0  0  0  0  0  0  0  0  0
   21.0101   70.4486   -0.6572 C   0  0  0  0  0  0  0  0  0  0  0  0
   22.6013   72.2180   -0.1594 C   0  0  0  0  0  0  0  0  0  0  0  0
   23.5595   71.6919   -0.9251 C   0  0  0  0  0  0  0  0  0  0  0  0
   23.2943   70.4344   -1.6533 C   0  0  0  0  0  0  0  0  0  0  0  0
   21.8181   69.0718   -1.9292 H   0  0  0  0  0  0  0  0  0  0  0  0
   20.2084   73.8259   -3.5576 O   0  0  0  0  0  0  0  0  0  0  0  0
   21.0418   72.9185   -4.6041 P   0  0  2  0  0  0  0  0  0  0  0  0
   20.9135   71.4283   -3.9874 O   0  0  0  0  0  0  0  0  0  0  0  0
   22.4539   73.3769   -4.8274 O   0  0  0  0  0  0  0  0  0  0  0  0
   20.1298   72.8886   -5.9354 O   0  0  0  0  0  0  0  0  0  0  0  0
   17.8001   73.0141   -6.3518 O   0  0  0  0  0  0  0  0  0  0  0  0
   18.7732   69.9643   -8.9600 O   0  0  0  0  0  0  0  0  0  0  0  0
   18.1154   72.5606   -9.9965 O   0  0  0  0  0  0  0  0  0  0  0  0
   20.0617   70.1174   -6.3723 O   0  0  0  0  0  0  0  0  0  0  0  0
   18.9856   71.1843   -8.2445 C   0  0  1  0  0  0  0  0  0  0  0  0
   17.8879   72.1721   -8.6446 C   0  0  1  0  0  0  0  0  0  0  0  0
   18.9319   70.8993   -6.7448 C   0  0  2  0  0  0  0  0  0  0  0  0
   17.8890   73.4027   -7.7276 C   0  0  1  0  0  0  0  0  0  0  0  0
   18.8873   72.1905   -5.9257 C   0  0  1  0  0  0  0  0  0  0  0  0
   18.8066   70.1382   -9.9129 H   0  0  0  0  0  0  0  0  0  0  0  0
   18.1128   71.7744  -10.5649 H   0  0  0  0  0  0  0  0  0  0  0  0
   20.0783   69.3028   -6.8976 H   0  0  0  0  0  0  0  0  0  0  0  0
   15.6681   73.5611   -8.5946 O   0  0  0  0  0  0  0  0  0  0  0  0
   16.7051   74.3257   -8.0078 C   0  0  0  0  0  0  0  0  0  0  0  0
   14.9078   74.1355   -8.7782 H   0  0  0  0  0  0  0  0  0  0  0  0
 25 28  1  0
 25 24  1  0
 25 26  1  1
 25 27  2  0
  1  4  1  0
  1 24  1  0
  1  2  1  1
  1  3  2  0
  6 11  1  0
  6 12  1  0
 29 36  1  0
 29 37  1  0
  9  7  1  1
  7 13  1  0
 10  8  1  1
  8 14  1  0
 37 28  1  6
  4  5  1  0
 33 30  1  6
 30 38  1  0
 34 31  1  6
 31 39  1  0
 35 32  1  1
 32 40  1  0
 41 42  1  0
 41 43  1  0
 15 19  2  0
 16 22  2  0
 12 17  1  6
 17 19  1  0
 17 20  1  0
 18 19  1  0
 18 22  1  0
 18 23  1  0
  9 10  1  0
  9 11  1  0
 10 12  1  0
 11  5  1  6
 33 34  1  0
 33 35  1  0
 34 36  1  0
 35 37  1  0
 36 42  1  6
 20 21  2  0
 21 22  1  0
M  CHG  2   2  -1  26  -1
M  END
>  <COMPND>  (116) 
    8629 

>  <AUTHOR>  (116) 
    GENERATED BY OPEN BABEL 3.1.1

>  <MASTER>  (116) 
        0    0    0    0    0    0    0    0   58    0   58    0

>  <minimizedAffinity>  (116) 
-7.06077

>  <CNNscore>  (116) 
0.2820395827

>  <CNNaffinity>  (116) 
3.7160720825

>  <CNN_VS>  (116) 
1.0480793715

>  <CNNaffinity_variance>  (116) 
0.7117903829

$$$$
117
     RDKit          3D

 43 45  0  0  0  0  0  0  0  0999 V2000
   22.8663   72.9085   -4.0822 P   0  0  2  0  0  0  0  0  0  0  0  0
   24.0671   73.3813   -5.0579 O   0  0  0  0  0  0  0  0  0  0  0  0
   22.4890   73.8958   -3.0172 O   0  0  0  0  0  0  0  0  0  0  0  0
   23.3434   71.4549   -3.5555 O   0  0  0  0  0  0  0  0  0  0  0  0
   23.3671   71.2161   -2.1590 C   0  0  0  0  0  0  0  0  0  0  0  0
   21.9334   70.4471   -0.3907 O   0  0  0  0  0  0  0  0  0  0  0  0
   20.1277   69.4219   -2.5538 O   0  0  0  0  0  0  0  0  0  0  0  0
   18.9013   71.7394   -1.8046 O   0  0  0  0  0  0  0  0  0  0  0  0
   20.9255   70.6044   -2.5296 C   0  0  1  0  0  0  0  0  0  0  0  0
   20.2992   71.6426   -1.6222 C   0  0  2  0  0  0  0  0  0  0  0  0
   22.2213   70.2813   -1.7963 C   0  0  1  0  0  0  0  0  0  0  0  0
   20.6746   71.1244   -0.2443 C   0  0  2  0  0  0  0  0  0  0  0  0
   19.2947   69.6035   -3.0175 H   0  0  0  0  0  0  0  0  0  0  0  0
   18.7136   72.0734   -2.6956 H   0  0  0  0  0  0  0  0  0  0  0  0
   18.5278   72.3537    1.1190 O   0  0  0  0  0  0  0  0  0  0  0  0
   21.3606   75.1687    3.4193 O   0  0  0  0  0  0  0  0  0  0  0  0
   20.8225   72.1809    0.7166 N   0  0  0  0  0  0  0  0  0  0  0  0
   19.9401   73.7542    2.2634 N   0  0  0  0  0  0  0  0  0  0  0  0
   19.6799   72.7302    1.3438 C   0  0  0  0  0  0  0  0  0  0  0  0
   22.0896   72.6615    1.0286 C   0  0  0  0  0  0  0  0  0  0  0  0
   22.3206   73.6395    1.9069 C   0  0  0  0  0  0  0  0  0  0  0  0
   21.1810   74.2673    2.6064 C   0  0  0  0  0  0  0  0  0  0  0  0
   19.1593   74.1523    2.7124 H   0  0  0  0  0  0  0  0  0  0  0  0
   21.6779   72.5479   -5.1168 O   0  0  0  0  0  0  0  0  0  0  0  0
   20.3453   73.3647   -5.5293 P   0  0  2  0  0  0  0  0  0  0  0  0
   20.9246   74.7868   -6.0386 O   0  0  0  0  0  0  0  0  0  0  0  0
   19.3236   73.4686   -4.4342 O   0  0  0  0  0  0  0  0  0  0  0  0
   19.8178   72.6359   -6.8693 O   0  0  0  0  0  0  0  0  0  0  0  0
   19.0287   70.5766   -6.0013 O   0  0  0  0  0  0  0  0  0  0  0  0
   17.7638   70.1727   -9.9113 O   0  0  0  0  0  0  0  0  0  0  0  0
   15.8361   70.6717   -7.8417 O   0  0  0  0  0  0  0  0  0  0  0  0
   20.3202   71.4051   -9.3407 O   0  0  0  0  0  0  0  0  0  0  0  0
   18.0576   70.8798   -8.7033 C   0  0  1  0  0  0  0  0  0  0  0  0
   17.1879   70.3014   -7.5854 C   0  0  1  0  0  0  0  0  0  0  0  0
   19.5396   70.7106   -8.3738 C   0  0  2  0  0  0  0  0  0  0  0  0
   17.6332   70.8213   -6.2119 C   0  0  1  0  0  0  0  0  0  0  0  0
   19.8665   71.2149   -6.9671 C   0  0  1  0  0  0  0  0  0  0  0  0
   16.8244   70.2765  -10.1264 H   0  0  0  0  0  0  0  0  0  0  0  0
   15.5676   70.3378   -8.7121 H   0  0  0  0  0  0  0  0  0  0  0  0
   20.1042   71.0766  -10.2269 H   0  0  0  0  0  0  0  0  0  0  0  0
   17.6988   70.1695   -3.9141 O   0  0  0  0  0  0  0  0  0  0  0  0
   16.8833   70.1373   -5.0708 C   0  0  0  0  0  0  0  0  0  0  0  0
   17.2342   69.7379   -3.1795 H   0  0  0  0  0  0  0  0  0  0  0  0
 25 28  1  0
 25 24  1  0
 25 26  1  6
 25 27  2  0
  1  4  1  0
  1 24  1  0
  1  2  1  6
  1  3  2  0
  6 11  1  0
  6 12  1  0
 29 36  1  0
 29 37  1  0
  9  7  1  1
  7 13  1  0
 10  8  1  1
  8 14  1  0
 37 28  1  6
  4  5  1  0
 33 30  1  6
 30 38  1  0
 34 31  1  6
 31 39  1  0
 35 32  1  6
 32 40  1  0
 41 42  1  0
 41 43  1  0
 15 19  2  0
 16 22  2  0
 12 17  1  1
 17 19  1  0
 17 20  1  0
 18 19  1  0
 18 22  1  0
 18 23  1  0
  9 10  1  0
  9 11  1  0
 10 12  1  0
 11  5  1  6
 33 34  1  0
 33 35  1  0
 34 36  1  0
 35 37  1  0
 36 42  1  1
 20 21  2  0
 21 22  1  0
M  CHG  2   2  -1  26  -1
M  END
>  <COMPND>  (117) 
    8629 

>  <AUTHOR>  (117) 
    GENERATED BY OPEN BABEL 3.1.1

>  <MASTER>  (117) 
        0    0    0    0    0    0    0    0   58    0   58    0

>  <minimizedAffinity>  (117) 
-7.94787

>  <CNNscore>  (117) 
0.2774812281

>  <CNNaffinity>  (117) 
3.9320328236

>  <CNN_VS>  (117) 
1.0910652876

>  <CNNaffinity_variance>  (117) 
0.3715982735

$$$$
118
     RDKit          3D

 43 45  0  0  0  0  0  0  0  0999 V2000
   22.4894   72.0552   -3.5228 P   0  0  2  0  0  0  0  0  0  0  0  0
   21.9797   70.7695   -2.6835 O   0  0  0  0  0  0  0  0  0  0  0  0
   23.9224   71.9966   -3.9640 O   0  0  0  0  0  0  0  0  0  0  0  0
   22.0940   73.3129   -2.5849 O   0  0  0  0  0  0  0  0  0  0  0  0
   21.4313   73.0597   -1.3583 C   0  0  0  0  0  0  0  0  0  0  0  0
   22.9155   74.0253    0.2661 O   0  0  0  0  0  0  0  0  0  0  0  0
   23.0059   71.3052    1.5245 O   0  0  0  0  0  0  0  0  0  0  0  0
   21.2547   72.6447    3.1294 O   0  0  0  0  0  0  0  0  0  0  0  0
   21.9149   71.9694    0.8890 C   0  0  1  0  0  0  0  0  0  0  0  0
   21.3714   73.0629    1.7847 C   0  0  2  0  0  0  0  0  0  0  0  0
   22.4703   72.7664   -0.2848 C   0  0  1  0  0  0  0  0  0  0  0  0
   22.4038   74.1623    1.6018 C   0  0  2  0  0  0  0  0  0  0  0  0
   22.6758   70.7892    2.2774 H   0  0  0  0  0  0  0  0  0  0  0  0
   20.5862   71.9449    3.1937 H   0  0  0  0  0  0  0  0  0  0  0  0
   21.9835   75.4425    4.0842 O   0  0  0  0  0  0  0  0  0  0  0  0
   20.2317   79.1943    2.0603 O   0  0  0  0  0  0  0  0  0  0  0  0
   21.8398   75.4740    1.7528 N   0  0  0  0  0  0  0  0  0  0  0  0
   21.1118   77.3096    3.0745 N   0  0  0  0  0  0  0  0  0  0  0  0
   21.6701   76.0254    3.0442 C   0  0  0  0  0  0  0  0  0  0  0  0
   21.4620   76.1995    0.6282 C   0  0  0  0  0  0  0  0  0  0  0  0
   20.9298   77.4226    0.6742 C   0  0  0  0  0  0  0  0  0  0  0  0
   20.7189   78.0706    1.9848 C   0  0  0  0  0  0  0  0  0  0  0  0
   20.9838   77.7138    3.9633 H   0  0  0  0  0  0  0  0  0  0  0  0
   21.4174   72.1502   -4.7289 O   0  0  0  0  0  0  0  0  0  0  0  0
   21.4042   73.0546   -6.0686 P   0  0  2  0  0  0  0  0  0  0  0  0
   22.7694   72.6224   -6.8216 O   0  0  0  0  0  0  0  0  0  0  0  0
   21.2772   74.5288   -5.8146 O   0  0  0  0  0  0  0  0  0  0  0  0
   20.2237   72.4276   -6.9732 O   0  0  0  0  0  0  0  0  0  0  0  0
   19.1700   70.4789   -6.1312 O   0  0  0  0  0  0  0  0  0  0  0  0
   17.9075   70.2677  -10.0571 O   0  0  0  0  0  0  0  0  0  0  0  0
   16.0359   70.9923   -8.0028 O   0  0  0  0  0  0  0  0  0  0  0  0
   20.5932   71.1612   -9.4500 O   0  0  0  0  0  0  0  0  0  0  0  0
   18.2753   70.9229   -8.8401 C   0  0  1  0  0  0  0  0  0  0  0  0
   17.3269   70.4514   -7.7361 C   0  0  1  0  0  0  0  0  0  0  0  0
   19.7201   70.5644   -8.4972 C   0  0  2  0  0  0  0  0  0  0  0  0
   17.8192   70.9004   -6.3537 C   0  0  1  0  0  0  0  0  0  0  0  0
   20.0927   71.0127   -7.0828 C   0  0  1  0  0  0  0  0  0  0  0  0
   16.9914   70.4916  -10.2808 H   0  0  0  0  0  0  0  0  0  0  0  0
   15.7369   70.7016   -8.8787 H   0  0  0  0  0  0  0  0  0  0  0  0
   20.3471   70.8694  -10.3412 H   0  0  0  0  0  0  0  0  0  0  0  0
   17.0588   68.8973   -5.2962 O   0  0  0  0  0  0  0  0  0  0  0  0
   16.9759   70.3088   -5.2263 C   0  0  0  0  0  0  0  0  0  0  0  0
   16.5271   68.5071   -4.5844 H   0  0  0  0  0  0  0  0  0  0  0  0
 25 28  1  0
 25 24  1  0
 25 26  1  6
 25 27  2  0
  1  4  1  0
  1 24  1  0
  1  2  1  1
  1  3  2  0
  6 11  1  0
  6 12  1  0
 29 36  1  0
 29 37  1  0
  9  7  1  1
  7 13  1  0
 10  8  1  1
  8 14  1  0
 37 28  1  6
  4  5  1  0
 33 30  1  6
 30 38  1  0
 34 31  1  6
 31 39  1  0
 35 32  1  6
 32 40  1  0
 41 42  1  0
 41 43  1  0
 15 19  2  0
 16 22  2  0
 12 17  1  6
 17 19  1  0
 17 20  1  0
 18 19  1  0
 18 22  1  0
 18 23  1  0
  9 10  1  0
  9 11  1  0
 10 12  1  0
 11  5  1  6
 33 34  1  0
 33 35  1  0
 34 36  1  0
 35 37  1  0
 36 42  1  1
 20 21  2  0
 21 22  1  0
M  CHG  2   2  -1  26  -1
M  END
>  <COMPND>  (118) 
    8629 

>  <AUTHOR>  (118) 
    GENERATED BY OPEN BABEL 3.1.1

>  <MASTER>  (118) 
        0    0    0    0    0    0    0    0   58    0   58    0

>  <minimizedAffinity>  (118) 
-7.94531

>  <CNNscore>  (118) 
0.2690404058

>  <CNNaffinity>  (118) 
4.0204873085

>  <CNN_VS>  (118) 
1.0816735029

>  <CNNaffinity_variance>  (118) 
0.0512270927

$$$$
119
     RDKit          3D

 43 45  0  0  0  0  0  0  0  0999 V2000
   20.0788   70.1388   -2.1624 P   0  0  2  0  0  0  0  0  0  0  0  0
   19.8345   69.1808   -0.8818 O   0  0  0  0  0  0  0  0  0  0  0  0
   20.8634   69.5157   -3.2794 O   0  0  0  0  0  0  0  0  0  0  0  0
   20.7110   71.4851   -1.5255 O   0  0  0  0  0  0  0  0  0  0  0  0
   21.1133   71.4660   -0.1670 C   0  0  0  0  0  0  0  0  0  0  0  0
   20.6244   73.8156   -0.2857 O   0  0  0  0  0  0  0  0  0  0  0  0
   22.5200   74.1356    2.0155 O   0  0  0  0  0  0  0  0  0  0  0  0
   20.0826   74.2437    3.2337 O   0  0  0  0  0  0  0  0  0  0  0  0
   21.6052   73.0758    1.7408 C   0  0  1  0  0  0  0  0  0  0  0  0
   20.1854   73.5200    2.0244 C   0  0  2  0  0  0  0  0  0  0  0  0
   21.5759   72.8604    0.2328 C   0  0  1  0  0  0  0  0  0  0  0  0
   19.8719   74.3707    0.8054 C   0  0  2  0  0  0  0  0  0  0  0  0
   22.5560   74.2913    2.9728 H   0  0  0  0  0  0  0  0  0  0  0  0
   20.2912   73.6594    3.9792 H   0  0  0  0  0  0  0  0  0  0  0  0
   17.9054   75.9716    2.0495 O   0  0  0  0  0  0  0  0  0  0  0  0
   14.5496   74.2080   -0.5716 O   0  0  0  0  0  0  0  0  0  0  0  0
   18.4767   74.3505    0.4675 N   0  0  0  0  0  0  0  0  0  0  0  0
   16.2361   75.0923    0.7433 N   0  0  0  0  0  0  0  0  0  0  0  0
   17.5716   75.1934    1.1536 C   0  0  0  0  0  0  0  0  0  0  0  0
   18.0185   73.5018   -0.5344 C   0  0  0  0  0  0  0  0  0  0  0  0
   16.7415   73.4164   -0.9129 C   0  0  0  0  0  0  0  0  0  0  0  0
   15.7316   74.2635   -0.2463 C   0  0  0  0  0  0  0  0  0  0  0  0
   15.5875   75.6698    1.2075 H   0  0  0  0  0  0  0  0  0  0  0  0
   18.5815   70.5958   -2.5653 O   0  0  0  0  0  0  0  0  0  0  0  0
   17.3770   69.7815   -3.2717 P   0  0  2  0  0  0  0  0  0  0  0  0
   16.1033   70.7598   -3.0766 O   0  0  0  0  0  0  0  0  0  0  0  0
   17.1781   68.3921   -2.7390 O   0  0  0  0  0  0  0  0  0  0  0  0
   17.7069   69.8519   -4.8501 O   0  0  0  0  0  0  0  0  0  0  0  0
   18.8123   71.8427   -5.5067 O   0  0  0  0  0  0  0  0  0  0  0  0
   17.7863   70.3969   -9.2361 O   0  0  0  0  0  0  0  0  0  0  0  0
   20.5277   70.3058   -8.3849 O   0  0  0  0  0  0  0  0  0  0  0  0
   15.9462   70.1103   -7.0199 O   0  0  0  0  0  0  0  0  0  0  0  0
   18.1924   70.3014   -7.8681 C   0  0  1  0  0  0  0  0  0  0  0  0
   19.5178   71.0488   -7.7080 C   0  0  1  0  0  0  0  0  0  0  0  0
   17.1141   70.9234   -6.9827 C   0  0  2  0  0  0  0  0  0  0  0  0
   19.8821   71.2195   -6.2270 C   0  0  1  0  0  0  0  0  0  0  0  0
   17.5960   71.0935   -5.5409 C   0  0  1  0  0  0  0  0  0  0  0  0
   18.4664   70.0033   -9.8035 H   0  0  0  0  0  0  0  0  0  0  0  0
   20.2852   70.2047   -9.3189 H   0  0  0  0  0  0  0  0  0  0  0  0
   15.6510   70.0104   -7.9379 H   0  0  0  0  0  0  0  0  0  0  0  0
   21.2104   72.9832   -7.1402 O   0  0  0  0  0  0  0  0  0  0  0  0
   21.1173   72.0977   -6.0395 C   0  0  0  0  0  0  0  0  0  0  0  0
   21.9919   73.5487   -7.0342 H   0  0  0  0  0  0  0  0  0  0  0  0
 25 28  1  0
 25 24  1  0
 25 26  1  6
 25 27  2  0
  1  4  1  0
  1 24  1  0
  1  2  1  1
  1  3  2  0
  6 11  1  0
  6 12  1  0
 29 36  1  0
 29 37  1  0
  9  7  1  6
  7 13  1  0
 10  8  1  1
  8 14  1  0
 37 28  1  6
  4  5  1  0
 33 30  1  6
 30 38  1  0
 34 31  1  6
 31 39  1  0
 35 32  1  1
 32 40  1  0
 41 42  1  0
 41 43  1  0
 15 19  2  0
 16 22  2  0
 12 17  1  6
 17 19  1  0
 17 20  1  0
 18 19  1  0
 18 22  1  0
 18 23  1  0
  9 10  1  0
  9 11  1  0
 10 12  1  0
 11  5  1  1
 33 34  1  0
 33 35  1  0
 34 36  1  0
 35 37  1  0
 36 42  1  6
 20 21  2  0
 21 22  1  0
M  CHG  2   2  -1  26  -1
M  END
>  <COMPND>  (119) 
    8629 

>  <AUTHOR>  (119) 
    GENERATED BY OPEN BABEL 3.1.1

>  <MASTER>  (119) 
        0    0    0    0    0    0    0    0   58    0   58    0

>  <minimizedAffinity>  (119) 
-7.31165

>  <CNNscore>  (119) 
0.2625599504

>  <CNNaffinity>  (119) 
3.9063830376

>  <CNN_VS>  (119) 
1.0256596804

>  <CNNaffinity_variance>  (119) 
0.1980464309

$$$$
120
     RDKit          3D

 43 45  0  0  0  0  0  0  0  0999 V2000
   22.7284   74.7771   -4.2004 P   0  0  2  0  0  0  0  0  0  0  0  0
   21.7028   74.7943   -5.4515 O   0  0  0  0  0  0  0  0  0  0  0  0
   24.0612   75.4137   -4.4646 O   0  0  0  0  0  0  0  0  0  0  0  0
   22.7686   73.2229   -3.7524 O   0  0  0  0  0  0  0  0  0  0  0  0
   21.9890   72.2893   -4.4794 C   0  0  0  0  0  0  0  0  0  0  0  0
   19.5966   72.0828   -4.5668 O   0  0  0  0  0  0  0  0  0  0  0  0
   19.8280   70.4989   -2.0313 O   0  0  0  0  0  0  0  0  0  0  0  0
   19.5208   68.5560   -3.9200 O   0  0  0  0  0  0  0  0  0  0  0  0
   20.7061   70.5362   -3.1551 C   0  0  1  0  0  0  0  0  0  0  0  0
   20.1015   69.7805   -4.3200 C   0  0  2  0  0  0  0  0  0  0  0  0
   20.7327   71.9653   -3.6826 C   0  0  1  0  0  0  0  0  0  0  0  0
   19.0749   70.7721   -4.8402 C   0  0  2  0  0  0  0  0  0  0  0  0
   19.7948   69.5960   -1.6769 H   0  0  0  0  0  0  0  0  0  0  0  0
   20.2140   67.9593   -3.5971 H   0  0  0  0  0  0  0  0  0  0  0  0
   16.6387   69.9484   -6.0083 O   0  0  0  0  0  0  0  0  0  0  0  0
   18.3492   70.3113  -10.2726 O   0  0  0  0  0  0  0  0  0  0  0  0
   18.8556   70.6430   -6.2532 N   0  0  0  0  0  0  0  0  0  0  0  0
   17.4923   70.1299   -8.1307 N   0  0  0  0  0  0  0  0  0  0  0  0
   17.5952   70.2208   -6.7367 C   0  0  0  0  0  0  0  0  0  0  0  0
   19.8836   70.9338   -7.1435 C   0  0  0  0  0  0  0  0  0  0  0  0
   19.7697   70.8408   -8.4700 C   0  0  0  0  0  0  0  0  0  0  0  0
   18.4855   70.4067   -9.0568 C   0  0  0  0  0  0  0  0  0  0  0  0
   16.6235   69.8374   -8.4903 H   0  0  0  0  0  0  0  0  0  0  0  0
   21.8724   75.4736   -3.0192 O   0  0  0  0  0  0  0  0  0  0  0  0
   22.3440   76.2880   -1.7049 P   0  0  2  0  0  0  0  0  0  0  0  0
   21.1602   77.3705   -1.4946 O   0  0  0  0  0  0  0  0  0  0  0  0
   23.7174   76.8851   -1.8109 O   0  0  0  0  0  0  0  0  0  0  0  0
   22.1612   75.2425   -0.4890 O   0  0  0  0  0  0  0  0  0  0  0  0
   21.3872   73.0042   -0.5764 O   0  0  0  0  0  0  0  0  0  0  0  0
   19.8713   74.0831    3.1099 O   0  0  0  0  0  0  0  0  0  0  0  0
   22.1110   72.2912    2.9671 O   0  0  0  0  0  0  0  0  0  0  0  0
   19.8571   75.9870    0.9294 O   0  0  0  0  0  0  0  0  0  0  0  0
   20.8227   74.0816    2.0421 C   0  0  1  0  0  0  0  0  0  0  0  0
   21.3147   72.6470    1.8403 C   0  0  1  0  0  0  0  0  0  0  0  0
   20.1501   74.6027    0.7735 C   0  0  2  0  0  0  0  0  0  0  0  0
   22.1308   72.5180    0.5471 C   0  0  1  0  0  0  0  0  0  0  0  0
   21.0255   74.3819   -0.4614 C   0  0  1  0  0  0  0  0  0  0  0  0
   20.2921   73.7538    3.9185 H   0  0  0  0  0  0  0  0  0  0  0  0
   21.5841   72.3774    3.7771 H   0  0  0  0  0  0  0  0  0  0  0  0
   19.3022   76.1136    1.7142 H   0  0  0  0  0  0  0  0  0  0  0  0
   23.6193   70.7132    1.0332 O   0  0  0  0  0  0  0  0  0  0  0  0
   22.4978   71.0667    0.2448 C   0  0  0  0  0  0  0  0  0  0  0  0
   23.8640   69.7919    0.8515 H   0  0  0  0  0  0  0  0  0  0  0  0
 25 28  1  0
 25 24  1  0
 25 26  1  1
 25 27  2  0
  1  4  1  0
  1 24  1  0
  1  2  1  6
  1  3  2  0
  6 11  1  0
  6 12  1  0
 29 36  1  0
 29 37  1  0
  9  7  1  1
  7 13  1  0
 10  8  1  1
  8 14  1  0
 37 28  1  1
  4  5  1  0
 33 30  1  1
 30 38  1  0
 34 31  1  1
 31 39  1  0
 35 32  1  1
 32 40  1  0
 41 42  1  0
 41 43  1  0
 15 19  2  0
 16 22  2  0
 12 17  1  6
 17 19  1  0
 17 20  1  0
 18 19  1  0
 18 22  1  0
 18 23  1  0
  9 10  1  0
  9 11  1  0
 10 12  1  0
 11  5  1  6
 33 34  1  0
 33 35  1  0
 34 36  1  0
 35 37  1  0
 36 42  1  6
 20 21  2  0
 21 22  1  0
M  CHG  2   2  -1  26  -1
M  END
>  <COMPND>  (120) 
    8629 

>  <AUTHOR>  (120) 
    GENERATED BY OPEN BABEL 3.1.1

>  <MASTER>  (120) 
        0    0    0    0    0    0    0    0   58    0   58    0

>  <minimizedAffinity>  (120) 
-6.90342

>  <CNNscore>  (120) 
0.2600472569

>  <CNNaffinity>  (120) 
3.9579453468

>  <CNN_VS>  (120) 
1.0292528868

>  <CNNaffinity_variance>  (120) 
0.1987315565

$$$$
121
     RDKit          3D

 43 45  0  0  0  0  0  0  0  0999 V2000
   21.4974   70.2887   -2.3443 P   0  0  2  0  0  0  0  0  0  0  0  0
   22.9448   69.8741   -2.9365 O   0  0  0  0  0  0  0  0  0  0  0  0
   21.0841   69.5494   -1.1057 O   0  0  0  0  0  0  0  0  0  0  0  0
   20.5033   70.1456   -3.6127 O   0  0  0  0  0  0  0  0  0  0  0  0
   19.3243   69.3737   -3.4640 C   0  0  0  0  0  0  0  0  0  0  0  0
   18.2290   71.1765   -4.6147 O   0  0  0  0  0  0  0  0  0  0  0  0
   15.7641   70.4013   -3.0934 O   0  0  0  0  0  0  0  0  0  0  0  0
   15.3235   69.2908   -5.5448 O   0  0  0  0  0  0  0  0  0  0  0  0
   16.7930   69.5702   -3.6281 C   0  0  1  0  0  0  0  0  0  0  0  0
   16.6629   69.4752   -5.1339 C   0  0  2  0  0  0  0  0  0  0  0  0
   18.1189   70.3037   -3.4690 C   0  0  1  0  0  0  0  0  0  0  0  0
   17.2342   70.8090   -5.5843 C   0  0  2  0  0  0  0  0  0  0  0  0
   14.9076   69.9537   -3.1834 H   0  0  0  0  0  0  0  0  0  0  0  0
   15.0057   68.4286   -5.2343 H   0  0  0  0  0  0  0  0  0  0  0  0
   15.8195   70.8203   -8.0289 O   0  0  0  0  0  0  0  0  0  0  0  0
   19.7041   70.5065  -10.4891 O   0  0  0  0  0  0  0  0  0  0  0  0
   17.8507   70.7317   -6.8786 N   0  0  0  0  0  0  0  0  0  0  0  0
   17.7549   70.6642   -9.2519 N   0  0  0  0  0  0  0  0  0  0  0  0
   17.0497   70.7438   -8.0443 C   0  0  0  0  0  0  0  0  0  0  0  0
   19.2347   70.6454   -6.9829 C   0  0  0  0  0  0  0  0  0  0  0  0
   19.8917   70.5689   -8.1421 C   0  0  0  0  0  0  0  0  0  0  0  0
   19.1292   70.5756   -9.4072 C   0  0  0  0  0  0  0  0  0  0  0  0
   17.2176   70.6706  -10.0772 H   0  0  0  0  0  0  0  0  0  0  0  0
   21.6247   71.8897   -2.1612 O   0  0  0  0  0  0  0  0  0  0  0  0
   20.5224   73.0038   -1.7653 P   0  0  2  0  0  0  0  0  0  0  0  0
   19.3415   72.1320   -1.0848 O   0  0  0  0  0  0  0  0  0  0  0  0
   20.0756   73.8623   -2.9130 O   0  0  0  0  0  0  0  0  0  0  0  0
   21.1862   73.8178   -0.5398 O   0  0  0  0  0  0  0  0  0  0  0  0
   23.2957   74.5168    0.2834 O   0  0  0  0  0  0  0  0  0  0  0  0
   21.9621   72.4204    3.5815 O   0  0  0  0  0  0  0  0  0  0  0  0
   22.0624   75.2892    3.6703 O   0  0  0  0  0  0  0  0  0  0  0  0
   21.4046   71.4305    0.9190 O   0  0  0  0  0  0  0  0  0  0  0  0
   21.8312   73.2576    2.4294 C   0  0  1  0  0  0  0  0  0  0  0  0
   22.6801   74.5114    2.6486 C   0  0  1  0  0  0  0  0  0  0  0  0
   22.3118   72.4914    1.1984 C   0  0  2  0  0  0  0  0  0  0  0  0
   22.8046   75.3291    1.3560 C   0  0  1  0  0  0  0  0  0  0  0  0
   22.4478   73.4072   -0.0194 C   0  0  1  0  0  0  0  0  0  0  0  0
   21.6582   72.9008    4.3665 H   0  0  0  0  0  0  0  0  0  0  0  0
   21.9893   74.7611    4.4808 H   0  0  0  0  0  0  0  0  0  0  0  0
   21.3274   70.8578    1.6974 H   0  0  0  0  0  0  0  0  0  0  0  0
   23.1525   77.4976    2.2972 O   0  0  0  0  0  0  0  0  0  0  0  0
   23.7745   76.4985    1.5103 C   0  0  0  0  0  0  0  0  0  0  0  0
   23.7584   78.2480    2.4041 H   0  0  0  0  0  0  0  0  0  0  0  0
 25 28  1  0
 25 24  1  0
 25 26  1  1
 25 27  2  0
  1  4  1  0
  1 24  1  0
  1  2  1  6
  1  3  2  0
  6 11  1  0
  6 12  1  0
 29 36  1  0
 29 37  1  0
  9  7  1  6
  7 13  1  0
 10  8  1  1
  8 14  1  0
 37 28  1  1
  4  5  1  0
 33 30  1  1
 30 38  1  0
 34 31  1  1
 31 39  1  0
 35 32  1  6
 32 40  1  0
 41 42  1  0
 41 43  1  0
 15 19  2  0
 16 22  2  0
 12 17  1  6
 17 19  1  0
 17 20  1  0
 18 19  1  0
 18 22  1  0
 18 23  1  0
  9 10  1  0
  9 11  1  0
 10 12  1  0
 11  5  1  6
 33 34  1  0
 33 35  1  0
 34 36  1  0
 35 37  1  0
 36 42  1  1
 20 21  2  0
 21 22  1  0
M  CHG  2   2  -1  26  -1
M  END
>  <COMPND>  (121) 
    8629 

>  <AUTHOR>  (121) 
    GENERATED BY OPEN BABEL 3.1.1

>  <MASTER>  (121) 
        0    0    0    0    0    0    0    0   58    0   58    0

>  <minimizedAffinity>  (121) 
-8.02344

>  <CNNscore>  (121) 
0.8655448556

>  <CNNaffinity>  (121) 
4.6405277252

>  <CNN_VS>  (121) 
4.0165848732

>  <CNNaffinity_variance>  (121) 
0.0470986776

$$$$
122
     RDKit          3D

 43 45  0  0  0  0  0  0  0  0999 V2000
   22.7363   72.9485   -3.8526 P   0  0  2  0  0  0  0  0  0  0  0  0
   23.9155   72.9838   -4.9596 O   0  0  0  0  0  0  0  0  0  0  0  0
   22.7806   74.0583   -2.8437 O   0  0  0  0  0  0  0  0  0  0  0  0
   22.8131   71.4485   -3.2509 O   0  0  0  0  0  0  0  0  0  0  0  0
   23.5366   71.2377   -2.0509 C   0  0  0  0  0  0  0  0  0  0  0  0
   22.9159   71.0730    0.2646 O   0  0  0  0  0  0  0  0  0  0  0  0
   20.4237   69.7088   -0.6941 O   0  0  0  0  0  0  0  0  0  0  0  0
   19.5555   72.2432   -0.1846 O   0  0  0  0  0  0  0  0  0  0  0  0
   21.1520   70.7806   -1.2908 C   0  0  1  0  0  0  0  0  0  0  0  0
   20.9151   72.0667   -0.5269 C   0  0  2  0  0  0  0  0  0  0  0  0
   22.6354   70.5337   -1.0457 C   0  0  1  0  0  0  0  0  0  0  0  0
   21.8047   71.8786    0.6903 C   0  0  2  0  0  0  0  0  0  0  0  0
   19.4735   69.8442   -0.8378 H   0  0  0  0  0  0  0  0  0  0  0  0
   19.0310   72.3586   -0.9923 H   0  0  0  0  0  0  0  0  0  0  0  0
   21.8709   72.5631    3.4298 O   0  0  0  0  0  0  0  0  0  0  0  0
   23.7305   76.6857    2.5429 O   0  0  0  0  0  0  0  0  0  0  0  0
   22.3014   73.1242    1.2034 N   0  0  0  0  0  0  0  0  0  0  0  0
   22.7970   74.6152    2.9860 N   0  0  0  0  0  0  0  0  0  0  0  0
   22.2893   73.3692    2.5963 C   0  0  0  0  0  0  0  0  0  0  0  0
   22.7936   74.0869    0.3289 C   0  0  0  0  0  0  0  0  0  0  0  0
   23.2730   75.2707    0.7164 C   0  0  0  0  0  0  0  0  0  0  0  0
   23.2961   75.6056    2.1549 C   0  0  0  0  0  0  0  0  0  0  0  0
   22.7982   74.8082    3.9516 H   0  0  0  0  0  0  0  0  0  0  0  0
   21.3940   72.9106   -4.7525 O   0  0  0  0  0  0  0  0  0  0  0  0
   19.9438   73.5873   -4.5246 P   0  0  2  0  0  0  0  0  0  0  0  0
   20.1599   75.1080   -5.0330 O   0  0  0  0  0  0  0  0  0  0  0  0
   19.4244   73.4716   -3.1208 O   0  0  0  0  0  0  0  0  0  0  0  0
   18.9979   72.9134   -5.6454 O   0  0  0  0  0  0  0  0  0  0  0  0
   19.3211   72.1293   -7.8584 O   0  0  0  0  0  0  0  0  0  0  0  0
   15.7751   74.1759   -8.3949 O   0  0  0  0  0  0  0  0  0  0  0  0
   15.7714   71.3040   -8.4126 O   0  0  0  0  0  0  0  0  0  0  0  0
   17.8133   75.2531   -6.6443 O   0  0  0  0  0  0  0  0  0  0  0  0
   16.7220   73.3742   -7.6836 C   0  0  1  0  0  0  0  0  0  0  0  0
   16.9580   72.0899   -8.4809 C   0  0  1  0  0  0  0  0  0  0  0  0
   18.0239   74.1582   -7.5294 C   0  0  2  0  0  0  0  0  0  0  0  0
   18.1524   71.3037   -7.9239 C   0  0  1  0  0  0  0  0  0  0  0  0
   19.1596   73.2717   -7.0154 C   0  0  1  0  0  0  0  0  0  0  0  0
   14.9460   73.6841   -8.4958 H   0  0  0  0  0  0  0  0  0  0  0  0
   15.0247   71.8122   -8.7668 H   0  0  0  0  0  0  0  0  0  0  0  0
   17.0923   75.8068   -6.9810 H   0  0  0  0  0  0  0  0  0  0  0  0
   17.8096   70.2213  -10.0263 O   0  0  0  0  0  0  0  0  0  0  0  0
   18.5037   70.1019   -8.7982 C   0  0  0  0  0  0  0  0  0  0  0  0
   18.0239   69.4633  -10.5931 H   0  0  0  0  0  0  0  0  0  0  0  0
 25 28  1  0
 25 24  1  0
 25 26  1  6
 25 27  2  0
  1  4  1  0
  1 24  1  0
  1  2  1  6
  1  3  2  0
  6 11  1  0
  6 12  1  0
 29 36  1  0
 29 37  1  0
  9  7  1  1
  7 13  1  0
 10  8  1  1
  8 14  1  0
 37 28  1  1
  4  5  1  0
 33 30  1  6
 30 38  1  0
 34 31  1  1
 31 39  1  0
 35 32  1  1
 32 40  1  0
 41 42  1  0
 41 43  1  0
 15 19  2  0
 16 22  2  0
 12 17  1  6
 17 19  1  0
 17 20  1  0
 18 19  1  0
 18 22  1  0
 18 23  1  0
  9 10  1  0
  9 11  1  0
 10 12  1  0
 11  5  1  6
 33 34  1  0
 33 35  1  0
 34 36  1  0
 35 37  1  0
 36 42  1  6
 20 21  2  0
 21 22  1  0
M  CHG  2   2  -1  26  -1
M  END
>  <COMPND>  (122) 
    8629 

>  <AUTHOR>  (122) 
    GENERATED BY OPEN BABEL 3.1.1

>  <MASTER>  (122) 
        0    0    0    0    0    0    0    0   58    0   58    0

>  <minimizedAffinity>  (122) 
-7.60092

>  <CNNscore>  (122) 
0.6453657150

>  <CNNaffinity>  (122) 
4.2284793854

>  <CNN_VS>  (122) 
2.7289156914

>  <CNNaffinity_variance>  (122) 
0.0919163972

$$$$
123
     RDKit          3D

 43 45  0  0  0  0  0  0  0  0999 V2000
   23.5300   70.7542   -2.2117 P   0  0  2  0  0  0  0  0  0  0  0  0
   23.8474   71.6075   -3.5491 O   0  0  0  0  0  0  0  0  0  0  0  0
   24.7145   70.0589   -1.6076 O   0  0  0  0  0  0  0  0  0  0  0  0
   22.2991   69.7974   -2.6444 O   0  0  0  0  0  0  0  0  0  0  0  0
   21.4703   70.2062   -3.7186 C   0  0  0  0  0  0  0  0  0  0  0  0
   19.3083   71.1333   -4.2083 O   0  0  0  0  0  0  0  0  0  0  0  0
   18.2639   69.3713   -2.0184 O   0  0  0  0  0  0  0  0  0  0  0  0
   17.5799   67.9914   -4.2689 O   0  0  0  0  0  0  0  0  0  0  0  0
   19.2985   69.1149   -2.9667 C   0  0  1  0  0  0  0  0  0  0  0  0
   18.7041   68.8451   -4.3333 C   0  0  2  0  0  0  0  0  0  0  0  0
   20.0544   70.4170   -3.2001 C   0  0  1  0  0  0  0  0  0  0  0  0
   18.3488   70.2451   -4.8043 C   0  0  2  0  0  0  0  0  0  0  0  0
   17.7674   68.5540   -1.8530 H   0  0  0  0  0  0  0  0  0  0  0  0
   17.8576   67.1133   -3.9644 H   0  0  0  0  0  0  0  0  0  0  0  0
   16.1795   69.7838   -6.5534 O   0  0  0  0  0  0  0  0  0  0  0  0
   18.7242   70.7768  -10.2656 O   0  0  0  0  0  0  0  0  0  0  0  0
   18.4163   70.3761   -6.2325 N   0  0  0  0  0  0  0  0  0  0  0  0
   17.4483   70.2788   -8.4004 N   0  0  0  0  0  0  0  0  0  0  0  0
   17.2697   70.1205   -7.0201 C   0  0  0  0  0  0  0  0  0  0  0  0
   19.6096   70.7546   -6.8380 C   0  0  0  0  0  0  0  0  0  0  0  0
   19.7638   70.8999   -8.1557 C   0  0  0  0  0  0  0  0  0  0  0  0
   18.6144   70.6518   -9.0498 C   0  0  0  0  0  0  0  0  0  0  0  0
   16.6632   70.1057   -8.9691 H   0  0  0  0  0  0  0  0  0  0  0  0
   22.8234   71.8411   -1.2462 O   0  0  0  0  0  0  0  0  0  0  0  0
   22.0766   71.6700    0.1772 P   0  0  2  0  0  0  0  0  0  0  0  0
   23.2054   70.9790    1.1077 O   0  0  0  0  0  0  0  0  0  0  0  0
   20.7831   70.9112    0.1061 O   0  0  0  0  0  0  0  0  0  0  0  0
   21.9400   73.1727    0.7501 O   0  0  0  0  0  0  0  0  0  0  0  0
   22.6573   74.2470    2.7370 O   0  0  0  0  0  0  0  0  0  0  0  0
   18.8548   75.8338    2.4648 O   0  0  0  0  0  0  0  0  0  0  0  0
   21.1282   77.4947    1.8984 O   0  0  0  0  0  0  0  0  0  0  0  0
   19.3197   73.0676    1.7493 O   0  0  0  0  0  0  0  0  0  0  0  0
   20.0983   75.3369    1.9626 C   0  0  1  0  0  0  0  0  0  0  0  0
   21.2235   76.2139    2.5155 C   0  0  1  0  0  0  0  0  0  0  0  0
   20.2753   73.8880    2.4129 C   0  0  2  0  0  0  0  0  0  0  0  0
   22.5982   75.5895    2.2411 C   0  0  1  0  0  0  0  0  0  0  0  0
   21.6919   73.3802    2.1381 C   0  0  1  0  0  0  0  0  0  0  0  0
   18.7360   76.7533    2.1820 H   0  0  0  0  0  0  0  0  0  0  0  0
   20.2553   77.8778    2.0789 H   0  0  0  0  0  0  0  0  0  0  0  0
   18.4271   73.3993    1.9313 H   0  0  0  0  0  0  0  0  0  0  0  0
   24.4742   75.4662    3.7157 O   0  0  0  0  0  0  0  0  0  0  0  0
   23.7247   76.3657    2.9199 C   0  0  0  0  0  0  0  0  0  0  0  0
   25.1949   75.9463    4.1537 H   0  0  0  0  0  0  0  0  0  0  0  0
 25 28  1  0
 25 24  1  0
 25 26  1  1
 25 27  2  0
  1  4  1  0
  1 24  1  0
  1  2  1  6
  1  3  2  0
  6 11  1  0
  6 12  1  0
 29 36  1  0
 29 37  1  0
  9  7  1  1
  7 13  1  0
 10  8  1  1
  8 14  1  0
 37 28  1  6
  4  5  1  0
 33 30  1  1
 30 38  1  0
 34 31  1  6
 31 39  1  0
 35 32  1  6
 32 40  1  0
 41 42  1  0
 41 43  1  0
 15 19  2  0
 16 22  2  0
 12 17  1  6
 17 19  1  0
 17 20  1  0
 18 19  1  0
 18 22  1  0
 18 23  1  0
  9 10  1  0
  9 11  1  0
 10 12  1  0
 11  5  1  6
 33 34  1  0
 33 35  1  0
 34 36  1  0
 35 37  1  0
 36 42  1  1
 20 21  2  0
 21 22  1  0
M  CHG  2   2  -1  26  -1
M  END
>  <COMPND>  (123) 
    8629 

>  <AUTHOR>  (123) 
    GENERATED BY OPEN BABEL 3.1.1

>  <MASTER>  (123) 
        0    0    0    0    0    0    0    0   58    0   58    0

>  <minimizedAffinity>  (123) 
-8.04273

>  <CNNscore>  (123) 
0.5996137857

>  <CNNaffinity>  (123) 
4.5508699417

>  <CNN_VS>  (123) 
2.7287642956

>  <CNNaffinity_variance>  (123) 
0.0345476791

$$$$
124
     RDKit          3D

 43 45  0  0  0  0  0  0  0  0999 V2000
   20.6756   70.6693   -1.0390 P   0  0  2  0  0  0  0  0  0  0  0  0
   21.9894   69.7735   -1.3369 O   0  0  0  0  0  0  0  0  0  0  0  0
   20.4962   71.0741    0.3946 O   0  0  0  0  0  0  0  0  0  0  0  0
   19.4653   69.8100   -1.6832 O   0  0  0  0  0  0  0  0  0  0  0  0
   19.2014   69.9472   -3.0685 C   0  0  0  0  0  0  0  0  0  0  0  0
   18.0077   71.5039   -4.4561 O   0  0  0  0  0  0  0  0  0  0  0  0
   15.5251   70.5421   -3.0768 O   0  0  0  0  0  0  0  0  0  0  0  0
   15.4443   69.2008   -5.4497 O   0  0  0  0  0  0  0  0  0  0  0  0
   16.6901   69.8092   -3.4524 C   0  0  1  0  0  0  0  0  0  0  0  0
   16.7093   69.5838   -4.9499 C   0  0  2  0  0  0  0  0  0  0  0  0
   17.8990   70.7144   -3.2515 C   0  0  1  0  0  0  0  0  0  0  0  0
   17.1558   70.9407   -5.4671 C   0  0  2  0  0  0  0  0  0  0  0  0
   14.7399   69.9843   -3.1962 H   0  0  0  0  0  0  0  0  0  0  0  0
   15.2048   68.3316   -5.0921 H   0  0  0  0  0  0  0  0  0  0  0  0
   15.9770   70.8817   -8.0331 O   0  0  0  0  0  0  0  0  0  0  0  0
   20.0785   70.5636  -10.1109 O   0  0  0  0  0  0  0  0  0  0  0  0
   17.8920   70.8433   -6.6959 N   0  0  0  0  0  0  0  0  0  0  0  0
   18.0202   70.7235   -9.0656 N   0  0  0  0  0  0  0  0  0  0  0  0
   17.2040   70.8203   -7.9314 C   0  0  0  0  0  0  0  0  0  0  0  0
   19.2805   70.7721   -6.6681 C   0  0  0  0  0  0  0  0  0  0  0  0
   20.0443   70.6789   -7.7586 C   0  0  0  0  0  0  0  0  0  0  0  0
   19.4039   70.6488   -9.0894 C   0  0  0  0  0  0  0  0  0  0  0  0
   17.5628   70.7055   -9.9375 H   0  0  0  0  0  0  0  0  0  0  0  0
   20.8350   71.9028   -2.0715 O   0  0  0  0  0  0  0  0  0  0  0  0
   21.2675   73.4413   -1.8286 P   0  0  2  0  0  0  0  0  0  0  0  0
   22.6205   73.3123   -0.9510 O   0  0  0  0  0  0  0  0  0  0  0  0
   20.1997   74.2887   -1.1995 O   0  0  0  0  0  0  0  0  0  0  0  0
   21.7667   73.9583   -3.2738 O   0  0  0  0  0  0  0  0  0  0  0  0
   20.1258   73.7176   -4.9668 O   0  0  0  0  0  0  0  0  0  0  0  0
   23.3948   74.5873   -7.3351 O   0  0  0  0  0  0  0  0  0  0  0  0
   21.3391   76.5603   -6.9757 O   0  0  0  0  0  0  0  0  0  0  0  0
   23.7091   72.9025   -5.0022 O   0  0  0  0  0  0  0  0  0  0  0  0
   22.5697   74.6743   -6.1701 C   0  0  1  0  0  0  0  0  0  0  0  0
   21.1950   75.1952   -6.5938 C   0  0  1  0  0  0  0  0  0  0  0  0
   22.4486   73.2882   -5.5396 C   0  0  2  0  0  0  0  0  0  0  0  0
   20.1771   75.0640   -5.4528 C   0  0  1  0  0  0  0  0  0  0  0  0
   21.3753   73.2552   -4.4501 C   0  0  1  0  0  0  0  0  0  0  0  0
   23.4762   75.4642   -7.7399 H   0  0  0  0  0  0  0  0  0  0  0  0
   21.9848   76.6293   -7.6965 H   0  0  0  0  0  0  0  0  0  0  0  0
   24.3799   72.9272   -5.7017 H   0  0  0  0  0  0  0  0  0  0  0  0
   17.9749   74.2550   -5.9054 O   0  0  0  0  0  0  0  0  0  0  0  0
   18.7642   75.4303   -5.9020 C   0  0  0  0  0  0  0  0  0  0  0  0
   17.0728   74.4729   -6.1889 H   0  0  0  0  0  0  0  0  0  0  0  0
 25 28  1  0
 25 24  1  0
 25 26  1  1
 25 27  2  0
  1  4  1  0
  1 24  1  0
  1  2  1  1
  1  3  2  0
  6 11  1  0
  6 12  1  0
 29 36  1  0
 29 37  1  0
  9  7  1  6
  7 13  1  0
 10  8  1  6
  8 14  1  0
 37 28  1  1
  4  5  1  0
 33 30  1  6
 30 38  1  0
 34 31  1  1
 31 39  1  0
 35 32  1  1
 32 40  1  0
 41 42  1  0
 41 43  1  0
 15 19  2  0
 16 22  2  0
 12 17  1  6
 17 19  1  0
 17 20  1  0
 18 19  1  0
 18 22  1  0
 18 23  1  0
  9 10  1  0
  9 11  1  0
 10 12  1  0
 11  5  1  6
 33 34  1  0
 33 35  1  0
 34 36  1  0
 35 37  1  0
 36 42  1  6
 20 21  2  0
 21 22  1  0
M  CHG  2   2  -1  26  -1
M  END
>  <COMPND>  (124) 
    8629 

>  <AUTHOR>  (124) 
    GENERATED BY OPEN BABEL 3.1.1

>  <MASTER>  (124) 
        0    0    0    0    0    0    0    0   58    0   58    0

>  <minimizedAffinity>  (124) 
-7.14139

>  <CNNscore>  (124) 
0.5544406772

>  <CNNaffinity>  (124) 
4.2650403976

>  <CNN_VS>  (124) 
2.3647119999

>  <CNNaffinity_variance>  (124) 
0.6341285110

$$$$
125
     RDKit          3D

 43 45  0  0  0  0  0  0  0  0999 V2000
   22.3899   75.1073   -5.2310 P   0  0  2  0  0  0  0  0  0  0  0  0
   23.8567   75.2630   -5.8957 O   0  0  0  0  0  0  0  0  0  0  0  0
   21.4370   76.2274   -5.5289 O   0  0  0  0  0  0  0  0  0  0  0  0
   22.6992   74.8458   -3.6645 O   0  0  0  0  0  0  0  0  0  0  0  0
   22.6723   75.9497   -2.7765 C   0  0  0  0  0  0  0  0  0  0  0  0
   21.0867   74.5142   -1.6815 O   0  0  0  0  0  0  0  0  0  0  0  0
   20.1962   76.9536   -0.1824 O   0  0  0  0  0  0  0  0  0  0  0  0
   21.7817   75.6836    1.6370 O   0  0  0  0  0  0  0  0  0  0  0  0
   21.5074   76.5831   -0.6051 C   0  0  1  0  0  0  0  0  0  0  0  0
   22.0448   75.4666    0.2657 C   0  0  2  0  0  0  0  0  0  0  0  0
   21.3874   75.8990   -1.9613 C   0  0  1  0  0  0  0  0  0  0  0  0
   21.3114   74.2559   -0.2859 C   0  0  2  0  0  0  0  0  0  0  0  0
   20.2472   77.3927    0.6816 H   0  0  0  0  0  0  0  0  0  0  0  0
   22.2707   76.4643    1.9406 H   0  0  0  0  0  0  0  0  0  0  0  0
   21.4200   72.6895    2.0620 O   0  0  0  0  0  0  0  0  0  0  0  0
   24.2684   69.6357    0.1122 O   0  0  0  0  0  0  0  0  0  0  0  0
   22.0732   73.0463   -0.1524 N   0  0  0  0  0  0  0  0  0  0  0  0
   22.8381   71.1701    1.0891 N   0  0  0  0  0  0  0  0  0  0  0  0
   22.0606   72.3351    1.0701 C   0  0  0  0  0  0  0  0  0  0  0  0
   22.8217   72.5766   -1.2262 C   0  0  0  0  0  0  0  0  0  0  0  0
   23.5588   71.4645   -1.1914 C   0  0  0  0  0  0  0  0  0  0  0  0
   23.6001   70.6629    0.0486 C   0  0  0  0  0  0  0  0  0  0  0  0
   22.8449   70.6585    1.9305 H   0  0  0  0  0  0  0  0  0  0  0  0
   21.9064   73.6560   -5.7531 O   0  0  0  0  0  0  0  0  0  0  0  0
   20.7234   72.6823   -5.2377 P   0  0  2  0  0  0  0  0  0  0  0  0
   19.6938   73.6998   -4.5151 O   0  0  0  0  0  0  0  0  0  0  0  0
   21.1917   71.5529   -4.3665 O   0  0  0  0  0  0  0  0  0  0  0  0
   19.9614   72.2181   -6.5826 O   0  0  0  0  0  0  0  0  0  0  0  0
   18.8798   70.1598   -6.1240 O   0  0  0  0  0  0  0  0  0  0  0  0
   17.9802   70.4975  -10.1399 O   0  0  0  0  0  0  0  0  0  0  0  0
   15.9159   70.9051   -8.1852 O   0  0  0  0  0  0  0  0  0  0  0  0
   20.5799   71.3203   -9.1684 O   0  0  0  0  0  0  0  0  0  0  0  0
   18.2225   70.9762   -8.8142 C   0  0  1  0  0  0  0  0  0  0  0  0
   17.1894   70.3437   -7.8796 C   0  0  1  0  0  0  0  0  0  0  0  0
   19.6382   70.5860   -8.3936 C   0  0  2  0  0  0  0  0  0  0  0  0
   17.5455   70.5961   -6.4083 C   0  0  1  0  0  0  0  0  0  0  0  0
   19.8722   70.8320   -6.9020 C   0  0  1  0  0  0  0  0  0  0  0  0
   17.0831   70.7423  -10.4132 H   0  0  0  0  0  0  0  0  0  0  0  0
   15.7033   70.7392   -9.1171 H   0  0  0  0  0  0  0  0  0  0  0  0
   20.4215   71.1559  -10.1106 H   0  0  0  0  0  0  0  0  0  0  0  0
   16.7171   70.4293   -4.1734 O   0  0  0  0  0  0  0  0  0  0  0  0
   16.6177   69.8424   -5.4580 C   0  0  0  0  0  0  0  0  0  0  0  0
   16.1316   69.9599   -3.5580 H   0  0  0  0  0  0  0  0  0  0  0  0
 25 28  1  0
 25 24  1  0
 25 26  1  1
 25 27  2  0
  1  4  1  0
  1 24  1  0
  1  2  1  6
  1  3  2  0
  6 11  1  0
  6 12  1  0
 29 36  1  0
 29 37  1  0
  9  7  1  1
  7 13  1  0
 10  8  1  1
  8 14  1  0
 37 28  1  6
  4  5  1  0
 33 30  1  6
 30 38  1  0
 34 31  1  6
 31 39  1  0
 35 32  1  6
 32 40  1  0
 41 42  1  0
 41 43  1  0
 15 19  2  0
 16 22  2  0
 12 17  1  6
 17 19  1  0
 17 20  1  0
 18 19  1  0
 18 22  1  0
 18 23  1  0
  9 10  1  0
  9 11  1  0
 10 12  1  0
 11  5  1  1
 33 34  1  0
 33 35  1  0
 34 36  1  0
 35 37  1  0
 36 42  1  1
 20 21  2  0
 21 22  1  0
M  CHG  2   2  -1  26  -1
M  END
>  <COMPND>  (125) 
    8629 

>  <AUTHOR>  (125) 
    GENERATED BY OPEN BABEL 3.1.1

>  <MASTER>  (125) 
        0    0    0    0    0    0    0    0   58    0   58    0

>  <minimizedAffinity>  (125) 
-7.19113

>  <CNNscore>  (125) 
0.5348547697

>  <CNNaffinity>  (125) 
4.4414286613

>  <CNN_VS>  (125) 
2.3755192757

>  <CNNaffinity_variance>  (125) 
0.1806062758

$$$$
126
     RDKit          3D

 43 45  0  0  0  0  0  0  0  0999 V2000
   22.6197   72.7763   -3.9997 P   0  0  2  0  0  0  0  0  0  0  0  0
   24.0024   72.9550   -4.8204 O   0  0  0  0  0  0  0  0  0  0  0  0
   22.2712   73.9169   -3.0891 O   0  0  0  0  0  0  0  0  0  0  0  0
   22.7741   71.3313   -3.2885 O   0  0  0  0  0  0  0  0  0  0  0  0
   23.4874   71.2518   -2.0667 C   0  0  0  0  0  0  0  0  0  0  0  0
   22.9315   71.0764    0.2644 O   0  0  0  0  0  0  0  0  0  0  0  0
   20.4467   69.6547   -0.6272 O   0  0  0  0  0  0  0  0  0  0  0  0
   19.5349   72.1696   -0.0972 O   0  0  0  0  0  0  0  0  0  0  0  0
   21.1345   70.7420   -1.2438 C   0  0  1  0  0  0  0  0  0  0  0  0
   20.8887   72.0234   -0.4750 C   0  0  2  0  0  0  0  0  0  0  0  0
   22.6290   70.5291   -1.0376 C   0  0  1  0  0  0  0  0  0  0  0  0
   21.8140   71.8573    0.7185 C   0  0  2  0  0  0  0  0  0  0  0  0
   19.4902   69.7685   -0.7460 H   0  0  0  0  0  0  0  0  0  0  0  0
   18.9869   72.2719   -0.8909 H   0  0  0  0  0  0  0  0  0  0  0  0
   21.8991   72.5623    3.4523 O   0  0  0  0  0  0  0  0  0  0  0  0
   23.6802   76.7086    2.5159 O   0  0  0  0  0  0  0  0  0  0  0  0
   22.2955   73.1145    1.2174 N   0  0  0  0  0  0  0  0  0  0  0  0
   22.7861   74.6262    2.9839 N   0  0  0  0  0  0  0  0  0  0  0  0
   22.2948   73.3693    2.6086 C   0  0  0  0  0  0  0  0  0  0  0  0
   22.7620   74.0790    0.3308 C   0  0  0  0  0  0  0  0  0  0  0  0
   23.2260   75.2732    0.7046 C   0  0  0  0  0  0  0  0  0  0  0  0
   23.2595   75.6188    2.1404 C   0  0  0  0  0  0  0  0  0  0  0  0
   22.7948   74.8261    3.9481 H   0  0  0  0  0  0  0  0  0  0  0  0
   21.5382   72.4930   -5.1672 O   0  0  0  0  0  0  0  0  0  0  0  0
   20.4681   73.4705   -5.8830 P   0  0  2  0  0  0  0  0  0  0  0  0
   21.3904   74.6621   -6.4722 O   0  0  0  0  0  0  0  0  0  0  0  0
   19.3591   73.9331   -4.9830 O   0  0  0  0  0  0  0  0  0  0  0  0
   19.9761   72.6539   -7.1853 O   0  0  0  0  0  0  0  0  0  0  0  0
   19.1531   70.7047   -6.1177 O   0  0  0  0  0  0  0  0  0  0  0  0
   17.7095   70.0300   -9.9271 O   0  0  0  0  0  0  0  0  0  0  0  0
   15.8903   70.7709   -7.8320 O   0  0  0  0  0  0  0  0  0  0  0  0
   20.3294   71.2060   -9.5631 O   0  0  0  0  0  0  0  0  0  0  0  0
   18.0790   70.8221   -8.7951 C   0  0  1  0  0  0  0  0  0  0  0  0
   17.2380   70.3712   -7.5992 C   0  0  1  0  0  0  0  0  0  0  0  0
   19.5668   70.6237   -8.5114 C   0  0  2  0  0  0  0  0  0  0  0  0
   17.7592   70.9846   -6.2927 C   0  0  1  0  0  0  0  0  0  0  0  0
   19.9708   71.2288   -7.1658 C   0  0  1  0  0  0  0  0  0  0  0  0
   16.7660   70.1518  -10.1129 H   0  0  0  0  0  0  0  0  0  0  0  0
   15.5734   70.3773   -8.6601 H   0  0  0  0  0  0  0  0  0  0  0  0
   20.0646   70.8144  -10.4095 H   0  0  0  0  0  0  0  0  0  0  0  0
   16.3982   69.2165   -5.4382 O   0  0  0  0  0  0  0  0  0  0  0  0
   17.0351   70.4260   -5.0697 C   0  0  0  0  0  0  0  0  0  0  0  0
   15.9334   68.8493   -4.6695 H   0  0  0  0  0  0  0  0  0  0  0  0
 25 28  1  0
 25 24  1  0
 25 26  1  6
 25 27  2  0
  1  4  1  0
  1 24  1  0
  1  2  1  6
  1  3  2  0
  6 11  1  0
  6 12  1  0
 29 36  1  0
 29 37  1  0
  9  7  1  1
  7 13  1  0
 10  8  1  1
  8 14  1  0
 37 28  1  6
  4  5  1  0
 33 30  1  6
 30 38  1  0
 34 31  1  6
 31 39  1  0
 35 32  1  6
 32 40  1  0
 41 42  1  0
 41 43  1  0
 15 19  2  0
 16 22  2  0
 12 17  1  6
 17 19  1  0
 17 20  1  0
 18 19  1  0
 18 22  1  0
 18 23  1  0
  9 10  1  0
  9 11  1  0
 10 12  1  0
 11  5  1  6
 33 34  1  0
 33 35  1  0
 34 36  1  0
 35 37  1  0
 36 42  1  1
 20 21  2  0
 21 22  1  0
M  CHG  2   2  -1  26  -1
M  END
>  <COMPND>  (126) 
    8629 

>  <AUTHOR>  (126) 
    GENERATED BY OPEN BABEL 3.1.1

>  <MASTER>  (126) 
        0    0    0    0    0    0    0    0   58    0   58    0

>  <minimizedAffinity>  (126) 
-8.47405

>  <CNNscore>  (126) 
0.5112398267

>  <CNNaffinity>  (126) 
4.1880764961

>  <CNN_VS>  (126) 
2.1411116123

>  <CNNaffinity_variance>  (126) 
0.1990637034

$$$$
127
     RDKit          3D

 43 45  0  0  0  0  0  0  0  0999 V2000
   20.9966   70.3936   -1.9439 P   0  0  2  0  0  0  0  0  0  0  0  0
   20.3163   69.4786   -0.7960 O   0  0  0  0  0  0  0  0  0  0  0  0
   22.1288   69.7441   -2.6839 O   0  0  0  0  0  0  0  0  0  0  0  0
   21.3568   71.7728   -1.1785 O   0  0  0  0  0  0  0  0  0  0  0  0
   22.1024   71.7036    0.0245 C   0  0  0  0  0  0  0  0  0  0  0  0
   21.8913   72.7171    2.1929 O   0  0  0  0  0  0  0  0  0  0  0  0
   18.9266   72.5192    1.7903 O   0  0  0  0  0  0  0  0  0  0  0  0
   19.4311   75.1369    1.2159 O   0  0  0  0  0  0  0  0  0  0  0  0
   19.9506   72.7925    0.8352 C   0  0  1  0  0  0  0  0  0  0  0  0
   20.4720   74.2032    1.0123 C   0  0  2  0  0  0  0  0  0  0  0  0
   21.1693   71.9546    1.2012 C   0  0  1  0  0  0  0  0  0  0  0  0
   21.3715   74.0563    2.2278 C   0  0  2  0  0  0  0  0  0  0  0  0
   18.1378   73.0428    1.5770 H   0  0  0  0  0  0  0  0  0  0  0  0
   18.8870   75.1945    0.4150 H   0  0  0  0  0  0  0  0  0  0  0  0
   22.9554   74.6912    4.4787 O   0  0  0  0  0  0  0  0  0  0  0  0
   25.5520   77.6260    2.0527 O   0  0  0  0  0  0  0  0  0  0  0  0
   22.4683   74.9828    2.2127 N   0  0  0  0  0  0  0  0  0  0  0  0
   24.2471   76.1518    3.2689 N   0  0  0  0  0  0  0  0  0  0  0  0
   23.1990   75.2316    3.3979 C   0  0  0  0  0  0  0  0  0  0  0  0
   22.8097   75.6332    1.0319 C   0  0  0  0  0  0  0  0  0  0  0  0
   23.8113   76.5089    0.9259 C   0  0  0  0  0  0  0  0  0  0  0  0
   24.6246   76.8251    2.1178 C   0  0  0  0  0  0  0  0  0  0  0  0
   24.7699   76.3412    4.0817 H   0  0  0  0  0  0  0  0  0  0  0  0
   19.7386   70.8098   -2.8699 O   0  0  0  0  0  0  0  0  0  0  0  0
   18.8152   69.9308   -3.8636 P   0  0  2  0  0  0  0  0  0  0  0  0
   17.3464   70.0337   -3.1933 O   0  0  0  0  0  0  0  0  0  0  0  0
   19.3024   68.5266   -4.0753 O   0  0  0  0  0  0  0  0  0  0  0  0
   18.7109   70.8128   -5.2113 O   0  0  0  0  0  0  0  0  0  0  0  0
   19.7912   70.3822   -7.2763 O   0  0  0  0  0  0  0  0  0  0  0  0
   19.6778   74.5068   -7.4384 O   0  0  0  0  0  0  0  0  0  0  0  0
   17.9417   72.9728   -9.1357 O   0  0  0  0  0  0  0  0  0  0  0  0
   20.1989   73.1744   -4.9219 O   0  0  0  0  0  0  0  0  0  0  0  0
   19.1930   73.2019   -7.1102 C   0  0  1  0  0  0  0  0  0  0  0  0
   19.0306   72.4099   -8.4091 C   0  0  1  0  0  0  0  0  0  0  0  0
   20.1950   72.5155   -6.1838 C   0  0  2  0  0  0  0  0  0  0  0  0
   18.7715   70.9245   -8.1236 C   0  0  1  0  0  0  0  0  0  0  0  0
   19.8741   71.0305   -6.0055 C   0  0  1  0  0  0  0  0  0  0  0  0
   19.0459   74.9482   -8.0261 H   0  0  0  0  0  0  0  0  0  0  0  0
   18.1176   73.9109   -9.3091 H   0  0  0  0  0  0  0  0  0  0  0  0
   20.4037   74.1135   -5.0483 H   0  0  0  0  0  0  0  0  0  0  0  0
   17.5023   70.2391  -10.0284 O   0  0  0  0  0  0  0  0  0  0  0  0
   18.7631   70.0893   -9.4021 C   0  0  0  0  0  0  0  0  0  0  0  0
   17.4825   69.7133  -10.8437 H   0  0  0  0  0  0  0  0  0  0  0  0
 25 28  1  0
 25 24  1  0
 25 26  1  1
 25 27  2  0
  1  4  1  0
  1 24  1  0
  1  2  1  1
  1  3  2  0
  6 11  1  0
  6 12  1  0
 29 36  1  0
 29 37  1  0
  9  7  1  1
  7 13  1  0
 10  8  1  1
  8 14  1  0
 37 28  1  6
  4  5  1  0
 33 30  1  6
 30 38  1  0
 34 31  1  1
 31 39  1  0
 35 32  1  1
 32 40  1  0
 41 42  1  0
 41 43  1  0
 15 19  2  0
 16 22  2  0
 12 17  1  6
 17 19  1  0
 17 20  1  0
 18 19  1  0
 18 22  1  0
 18 23  1  0
  9 10  1  0
  9 11  1  0
 10 12  1  0
 11  5  1  6
 33 34  1  0
 33 35  1  0
 34 36  1  0
 35 37  1  0
 36 42  1  6
 20 21  2  0
 21 22  1  0
M  CHG  2   2  -1  26  -1
M  END
>  <COMPND>  (127) 
    8629 

>  <AUTHOR>  (127) 
    GENERATED BY OPEN BABEL 3.1.1

>  <MASTER>  (127) 
        0    0    0    0    0    0    0    0   58    0   58    0

>  <minimizedAffinity>  (127) 
-7.60030

>  <CNNscore>  (127) 
0.4264978766

>  <CNNaffinity>  (127) 
3.9333653450

>  <CNN_VS>  (127) 
1.6775720119

>  <CNNaffinity_variance>  (127) 
0.1500402391

$$$$
128
     RDKit          3D

 43 45  0  0  0  0  0  0  0  0999 V2000
   19.6886   70.6692   -1.6662 P   0  0  2  0  0  0  0  0  0  0  0  0
   19.0108   71.9610   -0.9667 O   0  0  0  0  0  0  0  0  0  0  0  0
   19.8937   69.4918   -0.7589 O   0  0  0  0  0  0  0  0  0  0  0  0
   21.0239   71.2605   -2.3628 O   0  0  0  0  0  0  0  0  0  0  0  0
   21.9341   70.3528   -2.9589 C   0  0  0  0  0  0  0  0  0  0  0  0
   23.2992   72.0776   -1.9917 O   0  0  0  0  0  0  0  0  0  0  0  0
   25.4282   69.9831   -1.7248 O   0  0  0  0  0  0  0  0  0  0  0  0
   24.4129   70.1240    0.8023 O   0  0  0  0  0  0  0  0  0  0  0  0
   24.0145   69.8560   -1.5812 C   0  0  1  0  0  0  0  0  0  0  0  0
   23.5618   70.4681   -0.2720 C   0  0  2  0  0  0  0  0  0  0  0  0
   23.3547   70.7711   -2.6052 C   0  0  1  0  0  0  0  0  0  0  0  0
   23.5939   71.9531   -0.5908 C   0  0  2  0  0  0  0  0  0  0  0  0
   25.8715   69.4075   -1.0812 H   0  0  0  0  0  0  0  0  0  0  0  0
   24.3572   69.1696    0.9662 H   0  0  0  0  0  0  0  0  0  0  0  0
   23.1190   74.7211   -0.8923 O   0  0  0  0  0  0  0  0  0  0  0  0
   19.8321   74.6951    2.3384 O   0  0  0  0  0  0  0  0  0  0  0  0
   22.6196   72.6953    0.1584 N   0  0  0  0  0  0  0  0  0  0  0  0
   21.4826   74.7058    0.7164 N   0  0  0  0  0  0  0  0  0  0  0  0
   22.4607   74.0822   -0.0687 C   0  0  0  0  0  0  0  0  0  0  0  0
   21.8340   72.0480    1.1059 C   0  0  0  0  0  0  0  0  0  0  0  0
   20.9065   72.6574    1.8473 C   0  0  0  0  0  0  0  0  0  0  0  0
   20.6774   74.1061    1.6718 C   0  0  0  0  0  0  0  0  0  0  0  0
   21.3545   75.6721    0.5758 H   0  0  0  0  0  0  0  0  0  0  0  0
   18.7164   70.3862   -2.9262 O   0  0  0  0  0  0  0  0  0  0  0  0
   17.4637   71.2247   -3.5099 P   0  0  2  0  0  0  0  0  0  0  0  0
   17.7112   72.7142   -2.9288 O   0  0  0  0  0  0  0  0  0  0  0  0
   16.1220   70.6427   -3.1706 O   0  0  0  0  0  0  0  0  0  0  0  0
   17.7577   71.3502   -5.0919 O   0  0  0  0  0  0  0  0  0  0  0  0
   18.9051   70.2317   -6.8379 O   0  0  0  0  0  0  0  0  0  0  0  0
   20.6412   73.9616   -7.1910 O   0  0  0  0  0  0  0  0  0  0  0  0
   18.7600   73.0798   -9.1738 O   0  0  0  0  0  0  0  0  0  0  0  0
   20.0461   72.8882   -4.5693 O   0  0  0  0  0  0  0  0  0  0  0  0
   19.5823   73.0368   -6.9282 C   0  0  1  0  0  0  0  0  0  0  0  0
   19.3355   72.2174   -8.1964 C   0  0  1  0  0  0  0  0  0  0  0  0
   19.9900   72.1269   -5.7709 C   0  0  2  0  0  0  0  0  0  0  0  0
   18.4041   71.0303   -7.9163 C   0  0  1  0  0  0  0  0  0  0  0  0
   19.0244   70.9516   -5.6094 C   0  0  1  0  0  0  0  0  0  0  0  0
   20.3885   74.5426   -7.9245 H   0  0  0  0  0  0  0  0  0  0  0  0
   19.3578   73.8253   -9.3411 H   0  0  0  0  0  0  0  0  0  0  0  0
   20.6608   73.6289   -4.6844 H   0  0  0  0  0  0  0  0  0  0  0  0
   18.2644   70.9067  -10.2984 O   0  0  0  0  0  0  0  0  0  0  0  0
   18.2700   70.1103   -9.1278 C   0  0  0  0  0  0  0  0  0  0  0  0
   18.1799   70.3345  -11.0776 H   0  0  0  0  0  0  0  0  0  0  0  0
 25 28  1  0
 25 24  1  0
 25 26  1  1
 25 27  2  0
  1  4  1  0
  1 24  1  0
  1  2  1  1
  1  3  2  0
  6 11  1  0
  6 12  1  0
 29 36  1  0
 29 37  1  0
  9  7  1  1
  7 13  1  0
 10  8  1  1
  8 14  1  0
 37 28  1  6
  4  5  1  0
 33 30  1  6
 30 38  1  0
 34 31  1  6
 31 39  1  0
 35 32  1  1
 32 40  1  0
 41 42  1  0
 41 43  1  0
 15 19  2  0
 16 22  2  0
 12 17  1  1
 17 19  1  0
 17 20  1  0
 18 19  1  0
 18 22  1  0
 18 23  1  0
  9 10  1  0
  9 11  1  0
 10 12  1  0
 11  5  1  1
 33 34  1  0
 33 35  1  0
 34 36  1  0
 35 37  1  0
 36 42  1  6
 20 21  2  0
 21 22  1  0
M  CHG  2   2  -1  26  -1
M  END
>  <COMPND>  (128) 
    8629 

>  <AUTHOR>  (128) 
    GENERATED BY OPEN BABEL 3.1.1

>  <MASTER>  (128) 
        0    0    0    0    0    0    0    0   58    0   58    0

>  <minimizedAffinity>  (128) 
-7.63841

>  <CNNscore>  (128) 
0.4249320626

>  <CNNaffinity>  (128) 
3.9680705070

>  <CNN_VS>  (128) 
1.6861603260

>  <CNNaffinity_variance>  (128) 
0.7279945016

$$$$
129
     RDKit          3D

 43 45  0  0  0  0  0  0  0  0999 V2000
   19.2048   71.4028   -2.1723 P   0  0  2  0  0  0  0  0  0  0  0  0
   18.1076   72.5066   -2.6141 O   0  0  0  0  0  0  0  0  0  0  0  0
   18.7324   69.9799   -2.2335 O   0  0  0  0  0  0  0  0  0  0  0  0
   19.7082   71.9143   -0.7222 O   0  0  0  0  0  0  0  0  0  0  0  0
   20.4326   73.1298   -0.6480 C   0  0  0  0  0  0  0  0  0  0  0  0
   22.3528   74.0873    0.4336 O   0  0  0  0  0  0  0  0  0  0  0  0
   23.0901   71.2821    1.1939 O   0  0  0  0  0  0  0  0  0  0  0  0
   21.9895   72.2513    3.4930 O   0  0  0  0  0  0  0  0  0  0  0  0
   21.7988   71.8810    1.0976 C   0  0  1  0  0  0  0  0  0  0  0  0
   21.5625   72.8122    2.2683 C   0  0  2  0  0  0  0  0  0  0  0  0
   21.8167   72.8481   -0.0796 C   0  0  1  0  0  0  0  0  0  0  0  0
   22.3750   74.0324    1.8693 C   0  0  2  0  0  0  0  0  0  0  0  0
   23.1031   70.6600    1.9387 H   0  0  0  0  0  0  0  0  0  0  0  0
   21.4422   71.4785    3.7031 H   0  0  0  0  0  0  0  0  0  0  0  0
   23.8798   76.3618    2.4055 O   0  0  0  0  0  0  0  0  0  0  0  0
   20.1574   78.6501    3.8714 O   0  0  0  0  0  0  0  0  0  0  0  0
   21.8245   75.2514    2.3911 N   0  0  0  0  0  0  0  0  0  0  0  0
   22.0251   77.4994    3.1348 N   0  0  0  0  0  0  0  0  0  0  0  0
   22.6668   76.3631    2.6257 C   0  0  0  0  0  0  0  0  0  0  0  0
   20.4636   75.3361    2.6644 C   0  0  0  0  0  0  0  0  0  0  0  0
   19.8673   76.4266    3.1508 C   0  0  0  0  0  0  0  0  0  0  0  0
   20.6762   77.6320    3.4240 C   0  0  0  0  0  0  0  0  0  0  0  0
   22.5920   78.2860    3.3065 H   0  0  0  0  0  0  0  0  0  0  0  0
   20.4623   71.7360   -3.1317 O   0  0  0  0  0  0  0  0  0  0  0  0
   20.6047   72.7521   -4.3808 P   0  0  2  0  0  0  0  0  0  0  0  0
   22.0518   72.3783   -5.0001 O   0  0  0  0  0  0  0  0  0  0  0  0
   20.4415   74.1998   -4.0180 O   0  0  0  0  0  0  0  0  0  0  0  0
   19.5432   72.2118   -5.4700 O   0  0  0  0  0  0  0  0  0  0  0  0
   18.8646   69.9413   -5.5043 O   0  0  0  0  0  0  0  0  0  0  0  0
   18.0292   70.9389   -9.4232 O   0  0  0  0  0  0  0  0  0  0  0  0
   15.8714   70.5473   -7.5689 O   0  0  0  0  0  0  0  0  0  0  0  0
   20.3945   72.0006   -8.1357 O   0  0  0  0  0  0  0  0  0  0  0  0
   18.1381   71.1668   -8.0155 C   0  0  1  0  0  0  0  0  0  0  0  0
   17.2200   70.1761   -7.2969 C   0  0  1  0  0  0  0  0  0  0  0  0
   19.5900   70.9620   -7.5874 C   0  0  2  0  0  0  0  0  0  0  0  0
   17.4798   70.1768   -5.7844 C   0  0  1  0  0  0  0  0  0  0  0  0
   19.7308   70.9301   -6.0645 C   0  0  1  0  0  0  0  0  0  0  0  0
   17.1098   71.0678   -9.7015 H   0  0  0  0  0  0  0  0  0  0  0  0
   15.7207   70.5434   -8.5272 H   0  0  0  0  0  0  0  0  0  0  0  0
   20.2969   72.0102   -9.1001 H   0  0  0  0  0  0  0  0  0  0  0  0
   15.3082   69.3812   -5.1843 O   0  0  0  0  0  0  0  0  0  0  0  0
   16.6878   69.0855   -5.0675 C   0  0  0  0  0  0  0  0  0  0  0  0
   14.7917   68.6948   -4.7329 H   0  0  0  0  0  0  0  0  0  0  0  0
 25 28  1  0
 25 24  1  0
 25 26  1  6
 25 27  2  0
  1  4  1  0
  1 24  1  0
  1  2  1  6
  1  3  2  0
  6 11  1  0
  6 12  1  0
 29 36  1  0
 29 37  1  0
  9  7  1  1
  7 13  1  0
 10  8  1  1
  8 14  1  0
 37 28  1  1
  4  5  1  0
 33 30  1  6
 30 38  1  0
 34 31  1  1
 31 39  1  0
 35 32  1  1
 32 40  1  0
 41 42  1  0
 41 43  1  0
 15 19  2  0
 16 22  2  0
 12 17  1  1
 17 19  1  0
 17 20  1  0
 18 19  1  0
 18 22  1  0
 18 23  1  0
  9 10  1  0
  9 11  1  0
 10 12  1  0
 11  5  1  1
 33 34  1  0
 33 35  1  0
 34 36  1  0
 35 37  1  0
 36 42  1  1
 20 21  2  0
 21 22  1  0
M  CHG  2   2  -1  26  -1
M  END
>  <COMPND>  (129) 
    8629 

>  <AUTHOR>  (129) 
    GENERATED BY OPEN BABEL 3.1.1

>  <MASTER>  (129) 
        0    0    0    0    0    0    0    0   58    0   58    0

>  <minimizedAffinity>  (129) 
-7.38069

>  <CNNscore>  (129) 
0.4234155715

>  <CNNaffinity>  (129) 
4.0617852211

>  <CNN_VS>  (129) 
1.7198231220

>  <CNNaffinity_variance>  (129) 
0.0523524396

$$$$
130
     RDKit          3D

 43 45  0  0  0  0  0  0  0  0999 V2000
   21.6090   72.9255   -5.9644 P   0  0  2  0  0  0  0  0  0  0  0  0
   20.7089   74.1989   -6.3953 O   0  0  0  0  0  0  0  0  0  0  0  0
   23.0693   73.0428   -6.2889 O   0  0  0  0  0  0  0  0  0  0  0  0
   20.8411   71.6650   -6.6271 O   0  0  0  0  0  0  0  0  0  0  0  0
   20.2900   71.8146   -7.9239 C   0  0  0  0  0  0  0  0  0  0  0  0
   18.9427   70.0749   -6.9586 O   0  0  0  0  0  0  0  0  0  0  0  0
   17.6455   69.8425   -9.6519 O   0  0  0  0  0  0  0  0  0  0  0  0
   15.8209   71.2930   -8.2365 O   0  0  0  0  0  0  0  0  0  0  0  0
   18.1192   71.0062   -8.9760 C   0  0  1  0  0  0  0  0  0  0  0  0
   17.1774   71.3805   -7.8506 C   0  0  2  0  0  0  0  0  0  0  0  0
   19.3851   70.6260   -8.2183 C   0  0  1  0  0  0  0  0  0  0  0  0
   17.5473   70.3677   -6.7803 C   0  0  2  0  0  0  0  0  0  0  0  0
   16.8375   70.0606  -10.1433 H   0  0  0  0  0  0  0  0  0  0  0  0
   15.6351   71.9570   -8.9186 H   0  0  0  0  0  0  0  0  0  0  0  0
   16.1503   68.9948   -4.7451 O   0  0  0  0  0  0  0  0  0  0  0  0
   16.8249   72.4102   -1.7250 O   0  0  0  0  0  0  0  0  0  0  0  0
   17.3432   70.8747   -5.4526 N   0  0  0  0  0  0  0  0  0  0  0  0
   16.4875   70.6965   -3.2430 N   0  0  0  0  0  0  0  0  0  0  0  0
   16.6267   70.1063   -4.5056 C   0  0  0  0  0  0  0  0  0  0  0  0
   17.8511   72.1205   -5.1008 C   0  0  0  0  0  0  0  0  0  0  0  0
   17.7086   72.6697   -3.8928 C   0  0  0  0  0  0  0  0  0  0  0  0
   16.9729   71.9322   -2.8455 C   0  0  0  0  0  0  0  0  0  0  0  0
   15.9916   70.1796   -2.5671 H   0  0  0  0  0  0  0  0  0  0  0  0
   21.2806   72.7643   -4.3899 O   0  0  0  0  0  0  0  0  0  0  0  0
   21.4747   71.5107   -3.3880 P   0  0  2  0  0  0  0  0  0  0  0  0
   23.0791   71.3039   -3.3590 O   0  0  0  0  0  0  0  0  0  0  0  0
   20.6994   70.2856   -3.7777 O   0  0  0  0  0  0  0  0  0  0  0  0
   21.1126   72.0951   -1.9277 O   0  0  0  0  0  0  0  0  0  0  0  0
   21.3351   74.2573   -0.9834 O   0  0  0  0  0  0  0  0  0  0  0  0
   22.4290   71.9916    2.2909 O   0  0  0  0  0  0  0  0  0  0  0  0
   19.8831   73.3205    2.2728 O   0  0  0  0  0  0  0  0  0  0  0  0
   23.2586   71.1879   -0.3634 O   0  0  0  0  0  0  0  0  0  0  0  0
   21.6959   72.2913    1.1001 C   0  0  1  0  0  0  0  0  0  0  0  0
   20.9173   73.5881    1.3299 C   0  0  1  0  0  0  0  0  0  0  0  0
   22.6747   72.4506   -0.0619 C   0  0  2  0  0  0  0  0  0  0  0  0
   20.3208   74.1161    0.0181 C   0  0  1  0  0  0  0  0  0  0  0  0
   21.9899   73.0279   -1.3021 C   0  0  1  0  0  0  0  0  0  0  0  0
   21.8134   71.8887    3.0324 H   0  0  0  0  0  0  0  0  0  0  0  0
   20.2730   72.9873    3.0963 H   0  0  0  0  0  0  0  0  0  0  0  0
   23.6891   70.8332    0.4295 H   0  0  0  0  0  0  0  0  0  0  0  0
   20.1558   76.0599    1.3977 O   0  0  0  0  0  0  0  0  0  0  0  0
   19.6746   75.4883    0.1952 C   0  0  0  0  0  0  0  0  0  0  0  0
   19.7532   76.9339    1.5233 H   0  0  0  0  0  0  0  0  0  0  0  0
 25 28  1  0
 25 24  1  0
 25 26  1  1
 25 27  2  0
  1  4  1  0
  1 24  1  0
  1  2  1  6
  1  3  2  0
  6 11  1  0
  6 12  1  0
 29 36  1  0
 29 37  1  0
  9  7  1  1
  7 13  1  0
 10  8  1  6
  8 14  1  0
 37 28  1  1
  4  5  1  0
 33 30  1  1
 30 38  1  0
 34 31  1  1
 31 39  1  0
 35 32  1  6
 32 40  1  0
 41 42  1  0
 41 43  1  0
 15 19  2  0
 16 22  2  0
 12 17  1  1
 17 19  1  0
 17 20  1  0
 18 19  1  0
 18 22  1  0
 18 23  1  0
  9 10  1  0
  9 11  1  0
 10 12  1  0
 11  5  1  1
 33 34  1  0
 33 35  1  0
 34 36  1  0
 35 37  1  0
 36 42  1  1
 20 21  2  0
 21 22  1  0
M  CHG  2   2  -1  26  -1
M  END
>  <COMPND>  (130) 
    8629 

>  <AUTHOR>  (130) 
    GENERATED BY OPEN BABEL 3.1.1

>  <MASTER>  (130) 
        0    0    0    0    0    0    0    0   58    0   58    0

>  <minimizedAffinity>  (130) 
-7.14934

>  <CNNscore>  (130) 
0.4231593013

>  <CNNaffinity>  (130) 
3.9920341969

>  <CNN_VS>  (130) 
1.6892664433

>  <CNNaffinity_variance>  (130) 
0.2492624819

$$$$
131
     RDKit          3D

 43 45  0  0  0  0  0  0  0  0999 V2000
   19.4673   69.9690   -2.2018 P   0  0  2  0  0  0  0  0  0  0  0  0
   19.8878   69.3344   -0.7743 O   0  0  0  0  0  0  0  0  0  0  0  0
   20.6069   70.2153   -3.1463 O   0  0  0  0  0  0  0  0  0  0  0  0
   18.5897   71.2693   -1.8054 O   0  0  0  0  0  0  0  0  0  0  0  0
   18.9529   72.5235   -2.3556 C   0  0  0  0  0  0  0  0  0  0  0  0
   20.3115   72.7542   -0.3872 O   0  0  0  0  0  0  0  0  0  0  0  0
   19.9586   75.7134   -0.7180 O   0  0  0  0  0  0  0  0  0  0  0  0
   22.4556   75.2956   -1.7314 O   0  0  0  0  0  0  0  0  0  0  0  0
   20.0974   74.7041   -1.7167 C   0  0  1  0  0  0  0  0  0  0  0  0
   21.5330   74.2267   -1.7859 C   0  0  2  0  0  0  0  0  0  0  0  0
   19.3708   73.4573   -1.2280 C   0  0  1  0  0  0  0  0  0  0  0  0
   21.6210   73.3160   -0.5731 C   0  0  2  0  0  0  0  0  0  0  0  0
   20.4144   76.5197   -1.0079 H   0  0  0  0  0  0  0  0  0  0  0  0
   22.3605   75.8458   -2.5246 H   0  0  0  0  0  0  0  0  0  0  0  0
   22.5102   71.6004    1.4870 O   0  0  0  0  0  0  0  0  0  0  0  0
   25.2433   69.2593   -1.3923 O   0  0  0  0  0  0  0  0  0  0  0  0
   22.5644   72.2494   -0.7564 N   0  0  0  0  0  0  0  0  0  0  0  0
   23.8702   70.4360    0.0516 N   0  0  0  0  0  0  0  0  0  0  0  0
   22.9454   71.4466    0.3440 C   0  0  0  0  0  0  0  0  0  0  0  0
   23.1011   72.0079   -2.0164 C   0  0  0  0  0  0  0  0  0  0  0  0
   23.9830   71.0410   -2.2782 C   0  0  0  0  0  0  0  0  0  0  0  0
   24.4334   70.1573   -1.1836 C   0  0  0  0  0  0  0  0  0  0  0  0
   24.1506   69.8644    0.8029 H   0  0  0  0  0  0  0  0  0  0  0  0
   18.3539   68.9316   -2.7469 O   0  0  0  0  0  0  0  0  0  0  0  0
   17.4659   68.9403   -4.0976 P   0  0  2  0  0  0  0  0  0  0  0  0
   16.2592   69.9576   -3.7417 O   0  0  0  0  0  0  0  0  0  0  0  0
   17.0169   67.5803   -4.5476 O   0  0  0  0  0  0  0  0  0  0  0  0
   18.3669   69.7373   -5.1737 O   0  0  0  0  0  0  0  0  0  0  0  0
   19.0736   71.9611   -5.5882 O   0  0  0  0  0  0  0  0  0  0  0  0
   17.6343   71.0159   -9.3413 O   0  0  0  0  0  0  0  0  0  0  0  0
   20.4676   71.2236   -8.9201 O   0  0  0  0  0  0  0  0  0  0  0  0
   16.2476   70.0705   -6.9827 O   0  0  0  0  0  0  0  0  0  0  0  0
   18.2738   70.7586   -8.0882 C   0  0  1  0  0  0  0  0  0  0  0  0
   19.4969   71.6710   -7.9778 C   0  0  1  0  0  0  0  0  0  0  0  0
   17.2875   71.0423   -6.9568 C   0  0  2  0  0  0  0  0  0  0  0  0
   20.0796   71.6471   -6.5583 C   0  0  1  0  0  0  0  0  0  0  0  0
   17.9785   71.0432   -5.5920 C   0  0  1  0  0  0  0  0  0  0  0  0
   18.2551   70.8372  -10.0639 H   0  0  0  0  0  0  0  0  0  0  0  0
   20.0869   71.2431   -9.8122 H   0  0  0  0  0  0  0  0  0  0  0  0
   15.8178   70.0801   -7.8516 H   0  0  0  0  0  0  0  0  0  0  0  0
   22.3033   72.2650   -7.1766 O   0  0  0  0  0  0  0  0  0  0  0  0
   21.2020   72.6678   -6.3834 C   0  0  0  0  0  0  0  0  0  0  0  0
   23.0252   72.9055   -7.0755 H   0  0  0  0  0  0  0  0  0  0  0  0
 25 28  1  0
 25 24  1  0
 25 26  1  1
 25 27  2  0
  1  4  1  0
  1 24  1  0
  1  2  1  1
  1  3  2  0
  6 11  1  0
  6 12  1  0
 29 36  1  0
 29 37  1  0
  9  7  1  1
  7 13  1  0
 10  8  1  1
  8 14  1  0
 37 28  1  6
  4  5  1  0
 33 30  1  6
 30 38  1  0
 34 31  1  6
 31 39  1  0
 35 32  1  1
 32 40  1  0
 41 42  1  0
 41 43  1  0
 15 19  2  0
 16 22  2  0
 12 17  1  6
 17 19  1  0
 17 20  1  0
 18 19  1  0
 18 22  1  0
 18 23  1  0
  9 10  1  0
  9 11  1  0
 10 12  1  0
 11  5  1  6
 33 34  1  0
 33 35  1  0
 34 36  1  0
 35 37  1  0
 36 42  1  6
 20 21  2  0
 21 22  1  0
M  CHG  2   2  -1  26  -1
M  END
>  <COMPND>  (131) 
    8629 

>  <AUTHOR>  (131) 
    GENERATED BY OPEN BABEL 3.1.1

>  <MASTER>  (131) 
        0    0    0    0    0    0    0    0   58    0   58    0

>  <minimizedAffinity>  (131) 
-8.29346

>  <CNNscore>  (131) 
0.4062169790

>  <CNNaffinity>  (131) 
4.2131094933

>  <CNN_VS>  (131) 
1.7114366293

>  <CNNaffinity_variance>  (131) 
0.4031716883

$$$$
132
     RDKit          3D

 43 45  0  0  0  0  0  0  0  0999 V2000
   20.7863   71.0555   -2.4798 P   0  0  2  0  0  0  0  0  0  0  0  0
   19.1851   71.1272   -2.6997 O   0  0  0  0  0  0  0  0  0  0  0  0
   21.2866   69.7752   -1.8783 O   0  0  0  0  0  0  0  0  0  0  0  0
   21.1249   72.4017   -1.6487 O   0  0  0  0  0  0  0  0  0  0  0  0
   20.4860   72.6042   -0.4002 C   0  0  0  0  0  0  0  0  0  0  0  0
   22.7144   73.0922    0.3548 O   0  0  0  0  0  0  0  0  0  0  0  0
   21.7604   72.3044    3.0862 O   0  0  0  0  0  0  0  0  0  0  0  0
   21.7089   75.0285    3.2013 O   0  0  0  0  0  0  0  0  0  0  0  0
   21.0601   72.9885    2.0485 C   0  0  1  0  0  0  0  0  0  0  0  0
   21.5497   74.4174    1.9372 C   0  0  2  0  0  0  0  0  0  0  0  0
   21.5010   72.3966    0.7156 C   0  0  1  0  0  0  0  0  0  0  0  0
   22.8678   74.2425    1.2022 C   0  0  2  0  0  0  0  0  0  0  0  0
   21.4950   72.6650    3.9473 H   0  0  0  0  0  0  0  0  0  0  0  0
   20.8429   75.1176    3.6289 H   0  0  0  0  0  0  0  0  0  0  0  0
   24.1654   76.5631    2.1556 O   0  0  0  0  0  0  0  0  0  0  0  0
   24.0784   78.5432   -2.0052 O   0  0  0  0  0  0  0  0  0  0  0  0
   23.1968   75.3796    0.3897 N   0  0  0  0  0  0  0  0  0  0  0  0
   24.1212   77.5471    0.0830 N   0  0  0  0  0  0  0  0  0  0  0  0
   23.8478   76.4950    0.9664 C   0  0  0  0  0  0  0  0  0  0  0  0
   22.8747   75.3812   -0.9631 C   0  0  0  0  0  0  0  0  0  0  0  0
   23.1412   76.3929   -1.7917 C   0  0  0  0  0  0  0  0  0  0  0  0
   23.8198   77.5963   -1.2688 C   0  0  0  0  0  0  0  0  0  0  0  0
   24.5740   78.3349    0.4626 H   0  0  0  0  0  0  0  0  0  0  0  0
   21.3702   71.3806   -3.9516 O   0  0  0  0  0  0  0  0  0  0  0  0
   21.0692   72.6017   -4.9672 P   0  0  2  0  0  0  0  0  0  0  0  0
   22.3167   72.5450   -5.9957 O   0  0  0  0  0  0  0  0  0  0  0  0
   20.8819   73.9303   -4.2936 O   0  0  0  0  0  0  0  0  0  0  0  0
   19.8019   72.1077   -5.8359 O   0  0  0  0  0  0  0  0  0  0  0  0
   18.7045   70.0075   -5.7925 O   0  0  0  0  0  0  0  0  0  0  0  0
   18.2785   70.8918   -9.8034 O   0  0  0  0  0  0  0  0  0  0  0  0
   15.9929   71.0316   -8.0701 O   0  0  0  0  0  0  0  0  0  0  0  0
   20.7335   71.5706   -8.4279 O   0  0  0  0  0  0  0  0  0  0  0  0
   18.3561   71.1847   -8.4057 C   0  0  1  0  0  0  0  0  0  0  0  0
   17.2297   70.4319   -7.6947 C   0  0  1  0  0  0  0  0  0  0  0  0
   19.7181   70.7387   -7.8771 C   0  0  2  0  0  0  0  0  0  0  0  0
   17.4065   70.4805   -6.1711 C   0  0  1  0  0  0  0  0  0  0  0  0
   19.7714   70.7783   -6.3488 C   0  0  1  0  0  0  0  0  0  0  0  0
   17.4163   71.1730  -10.1454 H   0  0  0  0  0  0  0  0  0  0  0  0
   15.8938   70.9948   -9.0345 H   0  0  0  0  0  0  0  0  0  0  0  0
   20.6894   71.5366   -9.3958 H   0  0  0  0  0  0  0  0  0  0  0  0
   17.0605   68.4952   -4.8874 O   0  0  0  0  0  0  0  0  0  0  0  0
   16.3846   69.6054   -5.4486 C   0  0  0  0  0  0  0  0  0  0  0  0
   16.4226   67.9295   -4.4240 H   0  0  0  0  0  0  0  0  0  0  0  0
 25 28  1  0
 25 24  1  0
 25 26  1  6
 25 27  2  0
  1  4  1  0
  1 24  1  0
  1  2  1  6
  1  3  2  0
  6 11  1  0
  6 12  1  0
 29 36  1  0
 29 37  1  0
  9  7  1  1
  7 13  1  0
 10  8  1  1
  8 14  1  0
 37 28  1  6
  4  5  1  0
 33 30  1  6
 30 38  1  0
 34 31  1  1
 31 39  1  0
 35 32  1  6
 32 40  1  0
 41 42  1  0
 41 43  1  0
 15 19  2  0
 16 22  2  0
 12 17  1  6
 17 19  1  0
 17 20  1  0
 18 19  1  0
 18 22  1  0
 18 23  1  0
  9 10  1  0
  9 11  1  0
 10 12  1  0
 11  5  1  6
 33 34  1  0
 33 35  1  0
 34 36  1  0
 35 37  1  0
 36 42  1  1
 20 21  2  0
 21 22  1  0
M  CHG  2   2  -1  26  -1
M  END
>  <COMPND>  (132) 
    8629 

>  <AUTHOR>  (132) 
    GENERATED BY OPEN BABEL 3.1.1

>  <MASTER>  (132) 
        0    0    0    0    0    0    0    0   58    0   58    0

>  <minimizedAffinity>  (132) 
-7.02887

>  <CNNscore>  (132) 
0.3741095066

>  <CNNaffinity>  (132) 
4.0094366074

>  <CNN_VS>  (132) 
1.4999684095

>  <CNNaffinity_variance>  (132) 
0.0648033917

$$$$
133
     RDKit          3D

 43 45  0  0  0  0  0  0  0  0999 V2000
   20.3937   75.1352   -2.9973 P   0  0  2  0  0  0  0  0  0  0  0  0
   21.8363   74.9320   -2.2936 O   0  0  0  0  0  0  0  0  0  0  0  0
   20.3239   76.2617   -3.9860 O   0  0  0  0  0  0  0  0  0  0  0  0
   19.3640   75.2279   -1.7527 O   0  0  0  0  0  0  0  0  0  0  0  0
   19.8943   75.3201   -0.4419 C   0  0  0  0  0  0  0  0  0  0  0  0
   19.3961   72.9960   -0.0901 O   0  0  0  0  0  0  0  0  0  0  0  0
   18.7101   73.7621    2.7265 O   0  0  0  0  0  0  0  0  0  0  0  0
   21.2105   72.7062    2.9900 O   0  0  0  0  0  0  0  0  0  0  0  0
   19.7303   74.2793    1.8739 C   0  0  1  0  0  0  0  0  0  0  0  0
   20.8647   73.2838    1.7477 C   0  0  2  0  0  0  0  0  0  0  0  0
   19.1804   74.3167    0.4535 C   0  0  1  0  0  0  0  0  0  0  0  0
   20.2884   72.2715    0.7724 C   0  0  2  0  0  0  0  0  0  0  0  0
   19.0379   73.7291    3.6394 H   0  0  0  0  0  0  0  0  0  0  0  0
   21.5721   73.3900    3.5752 H   0  0  0  0  0  0  0  0  0  0  0  0
   19.9648   69.8040   -0.5636 O   0  0  0  0  0  0  0  0  0  0  0  0
   24.2452   69.9552   -2.2653 O   0  0  0  0  0  0  0  0  0  0  0  0
   21.3018   71.6429   -0.0271 N   0  0  0  0  0  0  0  0  0  0  0  0
   22.0963   69.8814   -1.4099 N   0  0  0  0  0  0  0  0  0  0  0  0
   21.0382   70.4032   -0.6548 C   0  0  0  0  0  0  0  0  0  0  0  0
   22.5406   72.2553   -0.1827 C   0  0  0  0  0  0  0  0  0  0  0  0
   23.5396   71.7440   -0.9051 C   0  0  0  0  0  0  0  0  0  0  0  0
   23.3461   70.4515   -1.5937 C   0  0  0  0  0  0  0  0  0  0  0  0
   21.9357   69.0183   -1.8561 H   0  0  0  0  0  0  0  0  0  0  0  0
   20.0832   73.6752   -3.6178 O   0  0  0  0  0  0  0  0  0  0  0  0
   20.7919   72.8603   -4.8205 P   0  0  2  0  0  0  0  0  0  0  0  0
   21.5218   71.6340   -4.0582 O   0  0  0  0  0  0  0  0  0  0  0  0
   21.7064   73.6922   -5.6723 O   0  0  0  0  0  0  0  0  0  0  0  0
   19.5717   72.1731   -5.6229 O   0  0  0  0  0  0  0  0  0  0  0  0
   18.8769   69.9158   -5.4266 O   0  0  0  0  0  0  0  0  0  0  0  0
   17.7975   70.5992   -9.3532 O   0  0  0  0  0  0  0  0  0  0  0  0
   15.7611   70.3868   -7.3393 O   0  0  0  0  0  0  0  0  0  0  0  0
   20.2480   71.7342   -8.3109 O   0  0  0  0  0  0  0  0  0  0  0  0
   17.9984   70.9403   -7.9789 C   0  0  1  0  0  0  0  0  0  0  0  0
   17.1218   70.0228   -7.1241 C   0  0  1  0  0  0  0  0  0  0  0  0
   19.4735   70.7537   -7.6288 C   0  0  2  0  0  0  0  0  0  0  0  0
   17.4785   70.1443   -5.6365 C   0  0  1  0  0  0  0  0  0  0  0  0
   19.7119   70.8449   -6.1205 C   0  0  1  0  0  0  0  0  0  0  0  0
   16.8629   70.7160   -9.5822 H   0  0  0  0  0  0  0  0  0  0  0  0
   15.5489   70.3062   -8.2826 H   0  0  0  0  0  0  0  0  0  0  0  0
   20.0885   71.6659   -9.2647 H   0  0  0  0  0  0  0  0  0  0  0  0
   15.4690   69.6722   -4.4332 O   0  0  0  0  0  0  0  0  0  0  0  0
   16.7270   69.1250   -4.7830 C   0  0  0  0  0  0  0  0  0  0  0  0
   14.9794   69.0342   -3.8900 H   0  0  0  0  0  0  0  0  0  0  0  0
 25 28  1  0
 25 24  1  0
 25 26  1  1
 25 27  2  0
  1  4  1  0
  1 24  1  0
  1  2  1  1
  1  3  2  0
  6 11  1  0
  6 12  1  0
 29 36  1  0
 29 37  1  0
  9  7  1  1
  7 13  1  0
 10  8  1  1
  8 14  1  0
 37 28  1  1
  4  5  1  0
 33 30  1  6
 30 38  1  0
 34 31  1  1
 31 39  1  0
 35 32  1  6
 32 40  1  0
 41 42  1  0
 41 43  1  0
 15 19  2  0
 16 22  2  0
 12 17  1  6
 17 19  1  0
 17 20  1  0
 18 19  1  0
 18 22  1  0
 18 23  1  0
  9 10  1  0
  9 11  1  0
 10 12  1  0
 11  5  1  6
 33 34  1  0
 33 35  1  0
 34 36  1  0
 35 37  1  0
 36 42  1  1
 20 21  2  0
 21 22  1  0
M  CHG  2   2  -1  26  -1
M  END
>  <COMPND>  (133) 
    8629 

>  <AUTHOR>  (133) 
    GENERATED BY OPEN BABEL 3.1.1

>  <MASTER>  (133) 
        0    0    0    0    0    0    0    0   58    0   58    0

>  <minimizedAffinity>  (133) 
-7.64139

>  <CNNscore>  (133) 
0.3619384468

>  <CNNaffinity>  (133) 
4.0658659935

>  <CNN_VS>  (133) 
1.4715932608

>  <CNNaffinity_variance>  (133) 
0.6322800517

$$$$
134
     RDKit          3D

 43 45  0  0  0  0  0  0  0  0999 V2000
   22.7310   73.0215   -4.9038 P   0  0  2  0  0  0  0  0  0  0  0  0
   23.0345   73.0048   -6.4928 O   0  0  0  0  0  0  0  0  0  0  0  0
   23.9106   72.7113   -4.0299 O   0  0  0  0  0  0  0  0  0  0  0  0
   21.4577   72.0364   -4.7412 O   0  0  0  0  0  0  0  0  0  0  0  0
   21.4771   71.0721   -3.7032 C   0  0  0  0  0  0  0  0  0  0  0  0
   19.1334   71.3798   -4.1344 O   0  0  0  0  0  0  0  0  0  0  0  0
   18.6569   69.5029   -1.8450 O   0  0  0  0  0  0  0  0  0  0  0  0
   18.2904   67.8957   -4.0174 O   0  0  0  0  0  0  0  0  0  0  0  0
   19.6927   69.4849   -2.8259 C   0  0  1  0  0  0  0  0  0  0  0  0
   19.1482   69.0100   -4.1569 C   0  0  2  0  0  0  0  0  0  0  0  0
   20.0723   70.9279   -3.1341 C   0  0  1  0  0  0  0  0  0  0  0  0
   18.4231   70.2466   -4.6600 C   0  0  2  0  0  0  0  0  0  0  0  0
   18.3980   68.5922   -1.6317 H   0  0  0  0  0  0  0  0  0  0  0  0
   18.7983   67.1349   -3.6951 H   0  0  0  0  0  0  0  0  0  0  0  0
   16.1422   69.7929   -6.2630 O   0  0  0  0  0  0  0  0  0  0  0  0
   18.4895   70.5871  -10.1490 O   0  0  0  0  0  0  0  0  0  0  0  0
   18.4097   70.3286   -6.0933 N   0  0  0  0  0  0  0  0  0  0  0  0
   17.3128   70.1889   -8.1966 N   0  0  0  0  0  0  0  0  0  0  0  0
   17.2118   70.0814   -6.8037 C   0  0  0  0  0  0  0  0  0  0  0  0
   19.5752   70.6512   -6.7799 C   0  0  0  0  0  0  0  0  0  0  0  0
   19.6551   70.7485   -8.1086 C   0  0  0  0  0  0  0  0  0  0  0  0
   18.4484   70.5055   -8.9252 C   0  0  0  0  0  0  0  0  0  0  0  0
   16.4909   70.0206   -8.7124 H   0  0  0  0  0  0  0  0  0  0  0  0
   22.0887   74.4867   -4.6718 O   0  0  0  0  0  0  0  0  0  0  0  0
   21.3535   75.1318   -3.3849 P   0  0  2  0  0  0  0  0  0  0  0  0
   19.7879   75.0861   -3.7904 O   0  0  0  0  0  0  0  0  0  0  0  0
   21.8562   76.4955   -3.0084 O   0  0  0  0  0  0  0  0  0  0  0  0
   21.5071   74.0189   -2.2261 O   0  0  0  0  0  0  0  0  0  0  0  0
   21.2883   75.0584   -0.1076 O   0  0  0  0  0  0  0  0  0  0  0  0
   22.3246   71.2566    1.1267 O   0  0  0  0  0  0  0  0  0  0  0  0
   19.6263   72.1753    1.4781 O   0  0  0  0  0  0  0  0  0  0  0  0
   23.5692   72.4014   -1.2228 O   0  0  0  0  0  0  0  0  0  0  0  0
   21.6980   72.2273    0.2838 C   0  0  1  0  0  0  0  0  0  0  0  0
   20.7106   73.0322    1.1311 C   0  0  1  0  0  0  0  0  0  0  0  0
   22.7697   73.1417   -0.3067 C   0  0  2  0  0  0  0  0  0  0  0  0
   20.1977   74.2603    0.3671 C   0  0  1  0  0  0  0  0  0  0  0  0
   22.1543   74.3573   -1.0022 C   0  0  1  0  0  0  0  0  0  0  0  0
   21.6496   70.6725    1.5045 H   0  0  0  0  0  0  0  0  0  0  0  0
   19.9638   71.4036    1.9596 H   0  0  0  0  0  0  0  0  0  0  0  0
   23.9532   71.6348   -0.7703 H   0  0  0  0  0  0  0  0  0  0  0  0
   19.5265   74.7874    2.5988 O   0  0  0  0  0  0  0  0  0  0  0  0
   19.3349   75.1622    1.2471 C   0  0  0  0  0  0  0  0  0  0  0  0
   18.9837   75.3532    3.1706 H   0  0  0  0  0  0  0  0  0  0  0  0
 25 28  1  0
 25 24  1  0
 25 26  1  6
 25 27  2  0
  1  4  1  0
  1 24  1  0
  1  2  1  6
  1  3  2  0
  6 11  1  0
  6 12  1  0
 29 36  1  0
 29 37  1  0
  9  7  1  1
  7 13  1  0
 10  8  1  1
  8 14  1  0
 37 28  1  6
  4  5  1  0
 33 30  1  1
 30 38  1  0
 34 31  1  6
 31 39  1  0
 35 32  1  6
 32 40  1  0
 41 42  1  0
 41 43  1  0
 15 19  2  0
 16 22  2  0
 12 17  1  6
 17 19  1  0
 17 20  1  0
 18 19  1  0
 18 22  1  0
 18 23  1  0
  9 10  1  0
  9 11  1  0
 10 12  1  0
 11  5  1  6
 33 34  1  0
 33 35  1  0
 34 36  1  0
 35 37  1  0
 36 42  1  1
 20 21  2  0
 21 22  1  0
M  CHG  2   2  -1  26  -1
M  END
>  <COMPND>  (134) 
    8629 

>  <AUTHOR>  (134) 
    GENERATED BY OPEN BABEL 3.1.1

>  <MASTER>  (134) 
        0    0    0    0    0    0    0    0   58    0   58    0

>  <minimizedAffinity>  (134) 
-7.16967

>  <CNNscore>  (134) 
0.3471718729

>  <CNNaffinity>  (134) 
4.1540722847

>  <CNN_VS>  (134) 
1.4421770573

>  <CNNaffinity_variance>  (134) 
0.1861070693

$$$$
135
     RDKit          3D

 43 45  0  0  0  0  0  0  0  0999 V2000
   20.5788   75.4071   -2.6188 P   0  0  2  0  0  0  0  0  0  0  0  0
   21.1489   73.8931   -2.6175 O   0  0  0  0  0  0  0  0  0  0  0  0
   21.6133   76.4737   -2.8275 O   0  0  0  0  0  0  0  0  0  0  0  0
   19.7356   75.5059   -1.2414 O   0  0  0  0  0  0  0  0  0  0  0  0
   20.4430   75.4980   -0.0137 C   0  0  0  0  0  0  0  0  0  0  0  0
   19.7940   73.2082    0.3169 O   0  0  0  0  0  0  0  0  0  0  0  0
   19.5838   73.8840    3.2306 O   0  0  0  0  0  0  0  0  0  0  0  0
   21.9920   72.6125    3.0876 O   0  0  0  0  0  0  0  0  0  0  0  0
   20.5155   74.3576    2.2596 C   0  0  1  0  0  0  0  0  0  0  0  0
   21.5271   73.2794    1.9318 C   0  0  2  0  0  0  0  0  0  0  0  0
   19.7760   74.5128    0.9365 C   0  0  1  0  0  0  0  0  0  0  0  0
   20.7308   72.3692    1.0122 C   0  0  2  0  0  0  0  0  0  0  0  0
   20.0330   73.7774    4.0844 H   0  0  0  0  0  0  0  0  0  0  0  0
   22.4923   73.2333    3.6400 H   0  0  0  0  0  0  0  0  0  0  0  0
   19.9375   70.1073   -0.4818 O   0  0  0  0  0  0  0  0  0  0  0  0
   23.9995   69.8858   -2.6481 O   0  0  0  0  0  0  0  0  0  0  0  0
   21.5610   71.7005    0.0504 N   0  0  0  0  0  0  0  0  0  0  0  0
   21.9606   69.9989   -1.5594 N   0  0  0  0  0  0  0  0  0  0  0  0
   21.0674   70.5724   -0.6455 C   0  0  0  0  0  0  0  0  0  0  0  0
   22.8489   72.1641   -0.1949 C   0  0  0  0  0  0  0  0  0  0  0  0
   23.6887   71.6052   -1.0687 C   0  0  0  0  0  0  0  0  0  0  0  0
   23.2507   70.4223   -1.8374 C   0  0  0  0  0  0  0  0  0  0  0  0
   21.6387   69.2116   -2.0555 H   0  0  0  0  0  0  0  0  0  0  0  0
   19.4241   75.3596   -3.7490 O   0  0  0  0  0  0  0  0  0  0  0  0
   18.0688   74.4839   -3.8459 P   0  0  2  0  0  0  0  0  0  0  0  0
   16.9106   75.6059   -3.9774 O   0  0  0  0  0  0  0  0  0  0  0  0
   17.8742   73.5235   -2.7085 O   0  0  0  0  0  0  0  0  0  0  0  0
   18.1330   73.7916   -5.3024 O   0  0  0  0  0  0  0  0  0  0  0  0
   18.5827   71.4651   -5.2594 O   0  0  0  0  0  0  0  0  0  0  0  0
   19.2230   72.1867   -9.2744 O   0  0  0  0  0  0  0  0  0  0  0  0
   16.8700   70.7629   -8.4472 O   0  0  0  0  0  0  0  0  0  0  0  0
   20.0695   74.1319   -7.3048 O   0  0  0  0  0  0  0  0  0  0  0  0
   18.5915   72.3630   -8.0034 C   0  0  1  0  0  0  0  0  0  0  0  0
   17.9736   71.0273   -7.5855 C   0  0  1  0  0  0  0  0  0  0  0  0
   19.6368   72.8139   -6.9849 C   0  0  2  0  0  0  0  0  0  0  0  0
   17.5122   71.0640   -6.1223 C   0  0  1  0  0  0  0  0  0  0  0  0
   19.0908   72.7672   -5.5566 C   0  0  1  0  0  0  0  0  0  0  0  0
   18.5646   71.9009   -9.9258 H   0  0  0  0  0  0  0  0  0  0  0  0
   17.1748   70.7429   -9.3680 H   0  0  0  0  0  0  0  0  0  0  0  0
   20.4132   74.1481   -8.2111 H   0  0  0  0  0  0  0  0  0  0  0  0
   15.6701   69.5494   -5.9742 O   0  0  0  0  0  0  0  0  0  0  0  0
   17.0375   69.6957   -5.6378 C   0  0  0  0  0  0  0  0  0  0  0  0
   15.3544   68.6829   -5.6722 H   0  0  0  0  0  0  0  0  0  0  0  0
 25 28  1  0
 25 24  1  0
 25 26  1  6
 25 27  2  0
  1  4  1  0
  1 24  1  0
  1  2  1  1
  1  3  2  0
  6 11  1  0
  6 12  1  0
 29 36  1  0
 29 37  1  0
  9  7  1  1
  7 13  1  0
 10  8  1  1
  8 14  1  0
 37 28  1  6
  4  5  1  0
 33 30  1  6
 30 38  1  0
 34 31  1  6
 31 39  1  0
 35 32  1  6
 32 40  1  0
 41 42  1  0
 41 43  1  0
 15 19  2  0
 16 22  2  0
 12 17  1  6
 17 19  1  0
 17 20  1  0
 18 19  1  0
 18 22  1  0
 18 23  1  0
  9 10  1  0
  9 11  1  0
 10 12  1  0
 11  5  1  6
 33 34  1  0
 33 35  1  0
 34 36  1  0
 35 37  1  0
 36 42  1  1
 20 21  2  0
 21 22  1  0
M  CHG  2   2  -1  26  -1
M  END
>  <COMPND>  (135) 
    8629 

>  <AUTHOR>  (135) 
    GENERATED BY OPEN BABEL 3.1.1

>  <MASTER>  (135) 
        0    0    0    0    0    0    0    0   58    0   58    0

>  <minimizedAffinity>  (135) 
-7.14527

>  <CNNscore>  (135) 
0.3361987174

>  <CNNaffinity>  (135) 
3.7648119926

>  <CNN_VS>  (135) 
1.2657250166

>  <CNNaffinity_variance>  (135) 
0.9121305346

$$$$
136
     RDKit          3D

 43 45  0  0  0  0  0  0  0  0999 V2000
   22.9823   72.0634   -3.6328 P   0  0  2  0  0  0  0  0  0  0  0  0
   22.8504   70.4932   -3.2661 O   0  0  0  0  0  0  0  0  0  0  0  0
   24.3511   72.5005   -4.0649 O   0  0  0  0  0  0  0  0  0  0  0  0
   22.3815   72.8175   -2.3335 O   0  0  0  0  0  0  0  0  0  0  0  0
   21.0873   73.3878   -2.4210 C   0  0  0  0  0  0  0  0  0  0  0  0
   18.9350   72.6648   -1.6344 O   0  0  0  0  0  0  0  0  0  0  0  0
   20.3626   71.7072    0.8223 O   0  0  0  0  0  0  0  0  0  0  0  0
   20.0126   69.4051   -0.5971 O   0  0  0  0  0  0  0  0  0  0  0  0
   20.8016   71.7040   -0.5351 C   0  0  1  0  0  0  0  0  0  0  0  0
   20.0889   70.6194   -1.3157 C   0  0  2  0  0  0  0  0  0  0  0  0
   20.2782   72.9709   -1.2004 C   0  0  1  0  0  0  0  0  0  0  0  0
   18.7250   71.2457   -1.5519 C   0  0  2  0  0  0  0  0  0  0  0  0
   20.6850   70.9076    1.2680 H   0  0  0  0  0  0  0  0  0  0  0  0
   20.9051   69.0464   -0.4724 H   0  0  0  0  0  0  0  0  0  0  0  0
   16.0968   71.8896   -2.3618 O   0  0  0  0  0  0  0  0  0  0  0  0
   16.5012   69.4492   -6.2505 O   0  0  0  0  0  0  0  0  0  0  0  0
   18.1181   70.7924   -2.7716 N   0  0  0  0  0  0  0  0  0  0  0  0
   16.3004   70.6741   -4.2975 N   0  0  0  0  0  0  0  0  0  0  0  0
   16.7919   71.1721   -3.0841 C   0  0  0  0  0  0  0  0  0  0  0  0
   18.8362   69.9810   -3.6432 C   0  0  0  0  0  0  0  0  0  0  0  0
   18.3526   69.5134   -4.7959 C   0  0  0  0  0  0  0  0  0  0  0  0
   16.9747   69.8635   -5.1969 C   0  0  0  0  0  0  0  0  0  0  0  0
   15.3785   70.9252   -4.5359 H   0  0  0  0  0  0  0  0  0  0  0  0
   21.8266   72.2758   -4.7429 O   0  0  0  0  0  0  0  0  0  0  0  0
   21.7571   73.2518   -6.0295 P   0  0  2  0  0  0  0  0  0  0  0  0
   23.3083   73.4065   -6.4622 O   0  0  0  0  0  0  0  0  0  0  0  0
   21.0518   74.5530   -5.7774 O   0  0  0  0  0  0  0  0  0  0  0  0
   21.0976   72.3480   -7.1928 O   0  0  0  0  0  0  0  0  0  0  0  0
   18.8047   72.5966   -6.6475 O   0  0  0  0  0  0  0  0  0  0  0  0
   18.4141   70.6788  -10.2835 O   0  0  0  0  0  0  0  0  0  0  0  0
   17.7674   73.4692  -10.0756 O   0  0  0  0  0  0  0  0  0  0  0  0
   20.5335   69.9122   -8.4669 O   0  0  0  0  0  0  0  0  0  0  0  0
   19.0144   71.5667   -9.3366 C   0  0  1  0  0  0  0  0  0  0  0  0
   17.9795   72.6244   -8.9480 C   0  0  1  0  0  0  0  0  0  0  0  0
   19.4526   70.7673   -8.1109 C   0  0  2  0  0  0  0  0  0  0  0  0
   18.4554   73.4491   -7.7444 C   0  0  1  0  0  0  0  0  0  0  0  0
   19.8595   71.6831   -6.9552 C   0  0  1  0  0  0  0  0  0  0  0  0
   18.1341   71.1800  -11.0644 H   0  0  0  0  0  0  0  0  0  0  0  0
   17.4677   72.9361  -10.8287 H   0  0  0  0  0  0  0  0  0  0  0  0
   20.2632   69.3373   -9.1993 H   0  0  0  0  0  0  0  0  0  0  0  0
   16.1803   74.1471   -7.9578 O   0  0  0  0  0  0  0  0  0  0  0  0
   17.3742   74.4030   -7.2413 C   0  0  0  0  0  0  0  0  0  0  0  0
   15.4831   74.7468   -7.6480 H   0  0  0  0  0  0  0  0  0  0  0  0
 25 28  1  0
 25 24  1  0
 25 26  1  6
 25 27  2  0
  1  4  1  0
  1 24  1  0
  1  2  1  1
  1  3  2  0
  6 11  1  0
  6 12  1  0
 29 36  1  0
 29 37  1  0
  9  7  1  1
  7 13  1  0
 10  8  1  1
  8 14  1  0
 37 28  1  6
  4  5  1  0
 33 30  1  6
 30 38  1  0
 34 31  1  6
 31 39  1  0
 35 32  1  6
 32 40  1  0
 41 42  1  0
 41 43  1  0
 15 19  2  0
 16 22  2  0
 12 17  1  6
 17 19  1  0
 17 20  1  0
 18 19  1  0
 18 22  1  0
 18 23  1  0
  9 10  1  0
  9 11  1  0
 10 12  1  0
 11  5  1  6
 33 34  1  0
 33 35  1  0
 34 36  1  0
 35 37  1  0
 36 42  1  1
 20 21  2  0
 21 22  1  0
M  CHG  2   2  -1  26  -1
M  END
>  <COMPND>  (136) 
    8629 

>  <AUTHOR>  (136) 
    GENERATED BY OPEN BABEL 3.1.1

>  <MASTER>  (136) 
        0    0    0    0    0    0    0    0   58    0   58    0

>  <minimizedAffinity>  (136) 
-7.58095

>  <CNNscore>  (136) 
0.3160437346

>  <CNNaffinity>  (136) 
3.7942969799

>  <CNN_VS>  (136) 
1.1991637945

>  <CNNaffinity_variance>  (136) 
1.0588715076

$$$$
137
     RDKit          3D

 43 45  0  0  0  0  0  0  0  0999 V2000
   18.9119   75.0260   -4.6062 P   0  0  2  0  0  0  0  0  0  0  0  0
   18.2369   75.1951   -3.1456 O   0  0  0  0  0  0  0  0  0  0  0  0
   19.0228   76.2922   -5.4036 O   0  0  0  0  0  0  0  0  0  0  0  0
   18.0583   73.8355   -5.2931 O   0  0  0  0  0  0  0  0  0  0  0  0
   17.8672   73.8636   -6.6968 C   0  0  0  0  0  0  0  0  0  0  0  0
   19.3615   72.0058   -6.3972 O   0  0  0  0  0  0  0  0  0  0  0  0
   19.5059   71.8806   -9.3896 O   0  0  0  0  0  0  0  0  0  0  0  0
   17.7602   69.8720   -8.7942 O   0  0  0  0  0  0  0  0  0  0  0  0
   18.3973   72.2059   -8.5527 C   0  0  1  0  0  0  0  0  0  0  0  0
   17.8521   70.9565   -7.8930 C   0  0  2  0  0  0  0  0  0  0  0  0
   18.9253   72.9915   -7.3588 C   0  0  1  0  0  0  0  0  0  0  0  0
   18.8672   70.7146   -6.7888 C   0  0  2  0  0  0  0  0  0  0  0  0
   19.1935   71.3788  -10.1594 H   0  0  0  0  0  0  0  0  0  0  0  0
   17.1020   70.0740   -9.4774 H   0  0  0  0  0  0  0  0  0  0  0  0
   20.3552   69.4816   -4.7289 O   0  0  0  0  0  0  0  0  0  0  0  0
   16.5386   68.2722   -2.4458 O   0  0  0  0  0  0  0  0  0  0  0  0
   18.2880   70.0702   -5.6439 N   0  0  0  0  0  0  0  0  0  0  0  0
   18.4536   68.8806   -3.5937 N   0  0  0  0  0  0  0  0  0  0  0  0
   19.1240   69.4806   -4.6672 C   0  0  0  0  0  0  0  0  0  0  0  0
   16.9057   70.0278   -5.4981 C   0  0  0  0  0  0  0  0  0  0  0  0
   16.2820   69.4505   -4.4690 C   0  0  0  0  0  0  0  0  0  0  0  0
   17.0824   68.8113   -3.4047 C   0  0  0  0  0  0  0  0  0  0  0  0
   19.0156   68.4630   -2.9011 H   0  0  0  0  0  0  0  0  0  0  0  0
   20.3248   74.3146   -4.2734 O   0  0  0  0  0  0  0  0  0  0  0  0
   21.6107   74.8424   -3.4482 P   0  0  2  0  0  0  0  0  0  0  0  0
   21.2253   76.3749   -3.1010 O   0  0  0  0  0  0  0  0  0  0  0  0
   22.9156   74.6810   -4.1730 O   0  0  0  0  0  0  0  0  0  0  0  0
   21.5321   74.0715   -2.0325 O   0  0  0  0  0  0  0  0  0  0  0  0
   22.2047   71.8065   -1.8475 O   0  0  0  0  0  0  0  0  0  0  0  0
   19.7147   72.0260    1.4393 O   0  0  0  0  0  0  0  0  0  0  0  0
   22.5579   71.8904    1.8209 O   0  0  0  0  0  0  0  0  0  0  0  0
   19.0069   73.4088   -1.0034 O   0  0  0  0  0  0  0  0  0  0  0  0
   20.6691   72.5144    0.4928 C   0  0  1  0  0  0  0  0  0  0  0  0
   21.9182   71.6346    0.5737 C   0  0  1  0  0  0  0  0  0  0  0  0
   20.0596   72.4554   -0.9066 C   0  0  2  0  0  0  0  0  0  0  0  0
   22.8772   71.9260   -0.5884 C   0  0  1  0  0  0  0  0  0  0  0  0
   21.1081   72.7114   -1.9907 C   0  0  1  0  0  0  0  0  0  0  0  0
   20.0953   72.0613    2.3300 H   0  0  0  0  0  0  0  0  0  0  0  0
   21.9415   71.7030    2.5463 H   0  0  0  0  0  0  0  0  0  0  0  0
   18.3496   73.2358   -0.3121 H   0  0  0  0  0  0  0  0  0  0  0  0
   23.8185   69.9355    0.3393 O   0  0  0  0  0  0  0  0  0  0  0  0
   24.0536   70.9526   -0.6170 C   0  0  0  0  0  0  0  0  0  0  0  0
   24.5590   69.3083    0.3322 H   0  0  0  0  0  0  0  0  0  0  0  0
 25 28  1  0
 25 24  1  0
 25 26  1  1
 25 27  2  0
  1  4  1  0
  1 24  1  0
  1  2  1  1
  1  3  2  0
  6 11  1  0
  6 12  1  0
 29 36  1  0
 29 37  1  0
  9  7  1  6
  7 13  1  0
 10  8  1  6
  8 14  1  0
 37 28  1  1
  4  5  1  0
 33 30  1  1
 30 38  1  0
 34 31  1  1
 31 39  1  0
 35 32  1  1
 32 40  1  0
 41 42  1  0
 41 43  1  0
 15 19  2  0
 16 22  2  0
 12 17  1  1
 17 19  1  0
 17 20  1  0
 18 19  1  0
 18 22  1  0
 18 23  1  0
  9 10  1  0
  9 11  1  0
 10 12  1  0
 11  5  1  1
 33 34  1  0
 33 35  1  0
 34 36  1  0
 35 37  1  0
 36 42  1  6
 20 21  2  0
 21 22  1  0
M  CHG  2   2  -1  26  -1
M  END
>  <COMPND>  (137) 
    8629 

>  <AUTHOR>  (137) 
    GENERATED BY OPEN BABEL 3.1.1

>  <MASTER>  (137) 
        0    0    0    0    0    0    0    0   58    0   58    0

>  <minimizedAffinity>  (137) 
-7.00376

>  <CNNscore>  (137) 
0.3112173378

>  <CNNaffinity>  (137) 
3.9839637280

>  <CNN_VS>  (137) 
1.2398785353

>  <CNNaffinity_variance>  (137) 
0.7248923182

$$$$
138
     RDKit          3D

 43 45  0  0  0  0  0  0  0  0999 V2000
   20.4373   70.2911   -1.9178 P   0  0  2  0  0  0  0  0  0  0  0  0
   19.9755   69.2812   -0.7413 O   0  0  0  0  0  0  0  0  0  0  0  0
   21.3380   69.6867   -2.9545 O   0  0  0  0  0  0  0  0  0  0  0  0
   21.0378   71.5656   -1.1223 O   0  0  0  0  0  0  0  0  0  0  0  0
   21.7858   71.3344    0.0588 C   0  0  0  0  0  0  0  0  0  0  0  0
   21.5280   73.7190   -0.0848 O   0  0  0  0  0  0  0  0  0  0  0  0
   22.5976   73.8153    2.7148 O   0  0  0  0  0  0  0  0  0  0  0  0
   19.9116   74.0935    3.0948 O   0  0  0  0  0  0  0  0  0  0  0  0
   21.7481   72.8439    2.1064 C   0  0  1  0  0  0  0  0  0  0  0  0
   20.3477   73.3974    1.9450 C   0  0  2  0  0  0  0  0  0  0  0  0
   22.1916   72.6735    0.6588 C   0  0  1  0  0  0  0  0  0  0  0  0
   20.5049   74.3048    0.7368 C   0  0  2  0  0  0  0  0  0  0  0  0
   22.3339   73.9409    3.6403 H   0  0  0  0  0  0  0  0  0  0  0  0
   19.8269   73.4733    3.8357 H   0  0  0  0  0  0  0  0  0  0  0  0
   19.9018   76.4451   -1.0050 O   0  0  0  0  0  0  0  0  0  0  0  0
   15.8337   74.6070   -2.1508 O   0  0  0  0  0  0  0  0  0  0  0  0
   19.2954   74.4109   -0.0295 N   0  0  0  0  0  0  0  0  0  0  0  0
   17.8768   75.5280   -1.5742 N   0  0  0  0  0  0  0  0  0  0  0  0
   19.0898   75.5269   -0.8737 C   0  0  0  0  0  0  0  0  0  0  0  0
   18.3287   73.4152    0.0600 C   0  0  0  0  0  0  0  0  0  0  0  0
   17.1767   73.4318   -0.6136 C   0  0  0  0  0  0  0  0  0  0  0  0
   16.8840   74.5627   -1.5177 C   0  0  0  0  0  0  0  0  0  0  0  0
   17.7116   76.2959   -2.1682 H   0  0  0  0  0  0  0  0  0  0  0  0
   19.0323   70.8490   -2.4902 O   0  0  0  0  0  0  0  0  0  0  0  0
   17.8231   70.0959   -3.2541 P   0  0  2  0  0  0  0  0  0  0  0  0
   16.5633   71.0833   -3.0186 O   0  0  0  0  0  0  0  0  0  0  0  0
   17.5951   68.6825   -2.8020 O   0  0  0  0  0  0  0  0  0  0  0  0
   18.1729   70.2482   -4.8224 O   0  0  0  0  0  0  0  0  0  0  0  0
   18.7469   72.3890   -5.6615 O   0  0  0  0  0  0  0  0  0  0  0  0
   17.6966   70.5506   -9.2066 O   0  0  0  0  0  0  0  0  0  0  0  0
   20.4624   71.0943   -8.6564 O   0  0  0  0  0  0  0  0  0  0  0  0
   16.1921   70.0029   -6.7950 O   0  0  0  0  0  0  0  0  0  0  0  0
   18.2472   70.6209   -7.8886 C   0  0  1  0  0  0  0  0  0  0  0  0
   19.3869   71.6416   -7.8987 C   0  0  1  0  0  0  0  0  0  0  0  0
   17.1524   71.0472   -6.9123 C   0  0  2  0  0  0  0  0  0  0  0  0
   19.8501   71.9689   -6.4728 C   0  0  1  0  0  0  0  0  0  0  0  0
   17.7260   71.3969   -5.5380 C   0  0  1  0  0  0  0  0  0  0  0  0
   18.3866   70.2800   -9.8313 H   0  0  0  0  0  0  0  0  0  0  0  0
   20.1566   70.8916   -9.5545 H   0  0  0  0  0  0  0  0  0  0  0  0
   15.8363   69.7910   -7.6716 H   0  0  0  0  0  0  0  0  0  0  0  0
   22.0505   72.6281   -5.8149 O   0  0  0  0  0  0  0  0  0  0  0  0
   20.8764   73.0995   -6.4502 C   0  0  0  0  0  0  0  0  0  0  0  0
   22.7128   73.3370   -5.7936 H   0  0  0  0  0  0  0  0  0  0  0  0
 25 28  1  0
 25 24  1  0
 25 26  1  6
 25 27  2  0
  1  4  1  0
  1 24  1  0
  1  2  1  1
  1  3  2  0
  6 11  1  0
  6 12  1  0
 29 36  1  0
 29 37  1  0
  9  7  1  1
  7 13  1  0
 10  8  1  1
  8 14  1  0
 37 28  1  6
  4  5  1  0
 33 30  1  6
 30 38  1  0
 34 31  1  6
 31 39  1  0
 35 32  1  1
 32 40  1  0
 41 42  1  0
 41 43  1  0
 15 19  2  0
 16 22  2  0
 12 17  1  6
 17 19  1  0
 17 20  1  0
 18 19  1  0
 18 22  1  0
 18 23  1  0
  9 10  1  0
  9 11  1  0
 10 12  1  0
 11  5  1  6
 33 34  1  0
 33 35  1  0
 34 36  1  0
 35 37  1  0
 36 42  1  6
 20 21  2  0
 21 22  1  0
M  CHG  2   2  -1  26  -1
M  END
>  <COMPND>  (138) 
    8629 

>  <AUTHOR>  (138) 
    GENERATED BY OPEN BABEL 3.1.1

>  <MASTER>  (138) 
        0    0    0    0    0    0    0    0   58    0   58    0

>  <minimizedAffinity>  (138) 
-7.09620

>  <CNNscore>  (138) 
0.3032702208

>  <CNNaffinity>  (138) 
3.8359122276

>  <CNN_VS>  (138) 
1.1633179188

>  <CNNaffinity_variance>  (138) 
0.4091629088

$$$$
139
     RDKit          3D

 43 45  0  0  0  0  0  0  0  0999 V2000
   22.4873   73.5291   -5.4924 P   0  0  2  0  0  0  0  0  0  0  0  0
   22.7268   74.5685   -6.7089 O   0  0  0  0  0  0  0  0  0  0  0  0
   23.7377   73.0284   -4.8312 O   0  0  0  0  0  0  0  0  0  0  0  0
   21.5290   72.3943   -6.1342 O   0  0  0  0  0  0  0  0  0  0  0  0
   20.4189   72.8074   -6.9117 C   0  0  0  0  0  0  0  0  0  0  0  0
   20.0542   70.4394   -6.7295 O   0  0  0  0  0  0  0  0  0  0  0  0
   17.8633   70.8111   -8.7426 O   0  0  0  0  0  0  0  0  0  0  0  0
   16.4901   70.6539   -6.3918 O   0  0  0  0  0  0  0  0  0  0  0  0
   18.2750   71.6778   -7.6869 C   0  0  1  0  0  0  0  0  0  0  0  0
   17.8195   71.1312   -6.3500 C   0  0  2  0  0  0  0  0  0  0  0  0
   19.7912   71.5855   -7.5683 C   0  0  1  0  0  0  0  0  0  0  0  0
   18.8304   70.0247   -6.1010 C   0  0  2  0  0  0  0  0  0  0  0  0
   16.8983   70.8532   -8.8376 H   0  0  0  0  0  0  0  0  0  0  0  0
   15.8853   71.3949   -6.5524 H   0  0  0  0  0  0  0  0  0  0  0  0
   17.1125   68.5814   -4.3853 O   0  0  0  0  0  0  0  0  0  0  0  0
   19.8654   69.2657   -0.7529 O   0  0  0  0  0  0  0  0  0  0  0  0
   19.0739   69.8099   -4.7025 N   0  0  0  0  0  0  0  0  0  0  0  0
   18.4847   68.9231   -2.5781 N   0  0  0  0  0  0  0  0  0  0  0  0
   18.1476   69.0717   -3.9295 C   0  0  0  0  0  0  0  0  0  0  0  0
   20.2209   70.3283   -4.1112 C   0  0  0  0  0  0  0  0  0  0  0  0
   20.5271   70.1789   -2.8208 C   0  0  0  0  0  0  0  0  0  0  0  0
   19.6120   69.4205   -1.9436 C   0  0  0  0  0  0  0  0  0  0  0  0
   17.8540   68.4128   -2.0200 H   0  0  0  0  0  0  0  0  0  0  0  0
   21.4869   74.3387   -4.5143 O   0  0  0  0  0  0  0  0  0  0  0  0
   21.7873   75.3752   -3.3108 P   0  0  2  0  0  0  0  0  0  0  0  0
   20.6460   76.5060   -3.5015 O   0  0  0  0  0  0  0  0  0  0  0  0
   23.1906   75.9083   -3.2936 O   0  0  0  0  0  0  0  0  0  0  0  0
   21.3564   74.5829   -1.9722 O   0  0  0  0  0  0  0  0  0  0  0  0
   21.7893   74.9974    0.3207 O   0  0  0  0  0  0  0  0  0  0  0  0
   22.1610   70.8849    0.3119 O   0  0  0  0  0  0  0  0  0  0  0  0
   19.8582   72.0979    1.5261 O   0  0  0  0  0  0  0  0  0  0  0  0
   23.1550   72.4293   -1.9255 O   0  0  0  0  0  0  0  0  0  0  0  0
   21.6187   72.1450   -0.0924 C   0  0  1  0  0  0  0  0  0  0  0  0
   21.0199   72.8269    1.1394 C   0  0  1  0  0  0  0  0  0  0  0  0
   22.7344   72.9996   -0.6909 C   0  0  2  0  0  0  0  0  0  0  0  0
   20.6593   74.2888    0.8429 C   0  0  1  0  0  0  0  0  0  0  0  0
   22.2863   74.4471   -0.9008 C   0  0  1  0  0  0  0  0  0  0  0  0
   21.4575   70.3372    0.6924 H   0  0  0  0  0  0  0  0  0  0  0  0
   20.0996   71.1764    1.7099 H   0  0  0  0  0  0  0  0  0  0  0  0
   23.4364   71.5132   -1.7792 H   0  0  0  0  0  0  0  0  0  0  0  0
   18.8443   74.7315    2.3325 O   0  0  0  0  0  0  0  0  0  0  0  0
   20.2077   75.0323    2.0981 C   0  0  0  0  0  0  0  0  0  0  0  0
   18.5432   75.1976    3.1286 H   0  0  0  0  0  0  0  0  0  0  0  0
 25 28  1  0
 25 24  1  0
 25 26  1  6
 25 27  2  0
  1  4  1  0
  1 24  1  0
  1  2  1  6
  1  3  2  0
  6 11  1  0
  6 12  1  0
 29 36  1  0
 29 37  1  0
  9  7  1  6
  7 13  1  0
 10  8  1  6
  8 14  1  0
 37 28  1  6
  4  5  1  0
 33 30  1  1
 30 38  1  0
 34 31  1  6
 31 39  1  0
 35 32  1  6
 32 40  1  0
 41 42  1  0
 41 43  1  0
 15 19  2  0
 16 22  2  0
 12 17  1  1
 17 19  1  0
 17 20  1  0
 18 19  1  0
 18 22  1  0
 18 23  1  0
  9 10  1  0
  9 11  1  0
 10 12  1  0
 11  5  1  1
 33 34  1  0
 33 35  1  0
 34 36  1  0
 35 37  1  0
 36 42  1  1
 20 21  2  0
 21 22  1  0
M  CHG  2   2  -1  26  -1
M  END
>  <COMPND>  (139) 
    8629 

>  <AUTHOR>  (139) 
    GENERATED BY OPEN BABEL 3.1.1

>  <MASTER>  (139) 
        0    0    0    0    0    0    0    0   58    0   58    0

>  <minimizedAffinity>  (139) 
-6.85513

>  <CNNscore>  (139) 
0.3029108047

>  <CNNaffinity>  (139) 
3.9033820629

>  <CNN_VS>  (139) 
1.1823766232

>  <CNNaffinity_variance>  (139) 
0.4958968163

$$$$
140
     RDKit          3D

 43 45  0  0  0  0  0  0  0  0999 V2000
   22.6120   72.0002   -3.2586 P   0  0  2  0  0  0  0  0  0  0  0  0
   23.9747   71.1497   -3.4515 O   0  0  0  0  0  0  0  0  0  0  0  0
   22.7431   73.2200   -2.3948 O   0  0  0  0  0  0  0  0  0  0  0  0
   21.5345   70.9000   -2.7620 O   0  0  0  0  0  0  0  0  0  0  0  0
   21.3468   70.7181   -1.3694 C   0  0  0  0  0  0  0  0  0  0  0  0
   19.8044   71.3139    0.3740 O   0  0  0  0  0  0  0  0  0  0  0  0
   17.8767   71.9923   -1.8202 O   0  0  0  0  0  0  0  0  0  0  0  0
   18.8183   74.4416   -1.0780 O   0  0  0  0  0  0  0  0  0  0  0  0
   19.2926   72.1622   -1.7787 C   0  0  1  0  0  0  0  0  0  0  0  0
   19.6566   73.3222   -0.8756 C   0  0  2  0  0  0  0  0  0  0  0  0
   19.8857   70.9764   -1.0280 C   0  0  1  0  0  0  0  0  0  0  0  0
   19.4918   72.7104    0.5052 C   0  0  2  0  0  0  0  0  0  0  0  0
   17.4756   72.7375   -2.2952 H   0  0  0  0  0  0  0  0  0  0  0  0
   18.9600   74.7948   -1.9701 H   0  0  0  0  0  0  0  0  0  0  0  0
   18.9076   75.0381    1.9945 O   0  0  0  0  0  0  0  0  0  0  0  0
   22.9565   74.8711    4.1899 O   0  0  0  0  0  0  0  0  0  0  0  0
   20.3751   73.2970    1.4732 N   0  0  0  0  0  0  0  0  0  0  0  0
   20.9240   74.9530    3.0865 N   0  0  0  0  0  0  0  0  0  0  0  0
   19.9866   74.4673    2.1660 C   0  0  0  0  0  0  0  0  0  0  0  0
   21.6111   72.7125    1.7274 C   0  0  0  0  0  0  0  0  0  0  0  0
   22.4941   73.1888    2.6075 C   0  0  0  0  0  0  0  0  0  0  0  0
   22.1657   74.4084    3.3735 C   0  0  0  0  0  0  0  0  0  0  0  0
   20.6752   75.7676    3.5807 H   0  0  0  0  0  0  0  0  0  0  0  0
   22.1517   72.2989   -4.7791 O   0  0  0  0  0  0  0  0  0  0  0  0
   21.1623   73.4233   -5.3873 P   0  0  2  0  0  0  0  0  0  0  0  0
   22.1155   74.2458   -6.4034 O   0  0  0  0  0  0  0  0  0  0  0  0
   20.4840   74.2717   -4.3509 O   0  0  0  0  0  0  0  0  0  0  0  0
   20.1543   72.6050   -6.3461 O   0  0  0  0  0  0  0  0  0  0  0  0
   19.1321   70.4763   -6.1457 O   0  0  0  0  0  0  0  0  0  0  0  0
   20.0529   70.3899  -10.1700 O   0  0  0  0  0  0  0  0  0  0  0  0
   17.3194   70.7043   -9.3474 O   0  0  0  0  0  0  0  0  0  0  0  0
   21.9018   71.5861   -8.2911 O   0  0  0  0  0  0  0  0  0  0  0  0
   19.6575   70.9963   -8.9366 C   0  0  1  0  0  0  0  0  0  0  0  0
   18.3686   70.3221   -8.4623 C   0  0  1  0  0  0  0  0  0  0  0  0
   20.7718   70.8093   -7.9087 C   0  0  2  0  0  0  0  0  0  0  0  0
   18.0279   70.7292   -7.0224 C   0  0  1  0  0  0  0  0  0  0  0  0
   20.3133   71.1973   -6.5018 C   0  0  1  0  0  0  0  0  0  0  0  0
   19.3500   70.5055  -10.8273 H   0  0  0  0  0  0  0  0  0  0  0  0
   17.5472   70.4420  -10.2532 H   0  0  0  0  0  0  0  0  0  0  0  0
   22.1825   71.3308   -9.1832 H   0  0  0  0  0  0  0  0  0  0  0  0
   15.6910   70.2809   -7.2390 O   0  0  0  0  0  0  0  0  0  0  0  0
   16.8353   69.9487   -6.4744 C   0  0  0  0  0  0  0  0  0  0  0  0
   14.9241   69.7913   -6.9017 H   0  0  0  0  0  0  0  0  0  0  0  0
 25 28  1  0
 25 24  1  0
 25 26  1  6
 25 27  2  0
  1  4  1  0
  1 24  1  0
  1  2  1  6
  1  3  2  0
  6 11  1  0
  6 12  1  0
 29 36  1  0
 29 37  1  0
  9  7  1  1
  7 13  1  0
 10  8  1  1
  8 14  1  0
 37 28  1  6
  4  5  1  0
 33 30  1  6
 30 38  1  0
 34 31  1  6
 31 39  1  0
 35 32  1  6
 32 40  1  0
 41 42  1  0
 41 43  1  0
 15 19  2  0
 16 22  2  0
 12 17  1  1
 17 19  1  0
 17 20  1  0
 18 19  1  0
 18 22  1  0
 18 23  1  0
  9 10  1  0
  9 11  1  0
 10 12  1  0
 11  5  1  6
 33 34  1  0
 33 35  1  0
 34 36  1  0
 35 37  1  0
 36 42  1  1
 20 21  2  0
 21 22  1  0
M  CHG  2   2  -1  26  -1
M  END
>  <COMPND>  (140) 
    8629 

>  <AUTHOR>  (140) 
    GENERATED BY OPEN BABEL 3.1.1

>  <MASTER>  (140) 
        0    0    0    0    0    0    0    0   58    0   58    0

>  <minimizedAffinity>  (140) 
-7.04100

>  <CNNscore>  (140) 
0.2890105844

>  <CNNaffinity>  (140) 
3.9217495918

>  <CNN_VS>  (140) 
1.1334271431

>  <CNNaffinity_variance>  (140) 
0.1836299896

$$$$
141
     RDKit          3D

 43 45  0  0  0  0  0  0  0  0999 V2000
   20.6881   70.5059   -1.6501 P   0  0  2  0  0  0  0  0  0  0  0  0
   19.8397   70.7204   -0.2894 O   0  0  0  0  0  0  0  0  0  0  0  0
   20.7221   71.6914   -2.5693 O   0  0  0  0  0  0  0  0  0  0  0  0
   20.0764   69.1465   -2.2790 O   0  0  0  0  0  0  0  0  0  0  0  0
   19.4662   69.2073   -3.5564 C   0  0  0  0  0  0  0  0  0  0  0  0
   18.4002   71.0735   -4.6310 O   0  0  0  0  0  0  0  0  0  0  0  0
   15.9599   70.3531   -3.0445 O   0  0  0  0  0  0  0  0  0  0  0  0
   15.3988   69.3143   -5.5027 O   0  0  0  0  0  0  0  0  0  0  0  0
   16.9397   69.4978   -3.6310 C   0  0  1  0  0  0  0  0  0  0  0  0
   16.7568   69.4414   -5.1333 C   0  0  2  0  0  0  0  0  0  0  0  0
   18.2960   70.1798   -3.5011 C   0  0  1  0  0  0  0  0  0  0  0  0
   17.3613   70.7637   -5.5742 C   0  0  2  0  0  0  0  0  0  0  0  0
   15.0852   69.9385   -3.1151 H   0  0  0  0  0  0  0  0  0  0  0  0
   15.0601   68.4573   -5.2001 H   0  0  0  0  0  0  0  0  0  0  0  0
   15.8598   70.7627   -7.9665 O   0  0  0  0  0  0  0  0  0  0  0  0
   19.6566   70.4894  -10.5647 O   0  0  0  0  0  0  0  0  0  0  0  0
   17.9318   70.6935   -6.8899 N   0  0  0  0  0  0  0  0  0  0  0  0
   17.7515   70.6268   -9.2583 N   0  0  0  0  0  0  0  0  0  0  0  0
   17.0894   70.6985   -8.0260 C   0  0  0  0  0  0  0  0  0  0  0  0
   19.3119   70.6211   -7.0438 C   0  0  0  0  0  0  0  0  0  0  0  0
   19.9277   70.5520   -8.2259 C   0  0  0  0  0  0  0  0  0  0  0  0
   19.1202   70.5520   -9.4628 C   0  0  0  0  0  0  0  0  0  0  0  0
   17.1850   70.6284  -10.0638 H   0  0  0  0  0  0  0  0  0  0  0  0
   22.1355   70.0351   -1.1055 O   0  0  0  0  0  0  0  0  0  0  0  0
   23.1840   70.7619   -0.1129 P   0  0  2  0  0  0  0  0  0  0  0  0
   23.8607   71.8927   -1.0514 O   0  0  0  0  0  0  0  0  0  0  0  0
   24.1642   69.8288    0.5370 O   0  0  0  0  0  0  0  0  0  0  0  0
   22.2614   71.5891    0.9213 O   0  0  0  0  0  0  0  0  0  0  0  0
   22.4644   73.8455    0.2253 O   0  0  0  0  0  0  0  0  0  0  0  0
   19.8499   74.3606    3.3796 O   0  0  0  0  0  0  0  0  0  0  0  0
   18.8922   74.6307    0.6856 O   0  0  0  0  0  0  0  0  0  0  0  0
   21.9982   72.4314    3.5852 O   0  0  0  0  0  0  0  0  0  0  0  0
   20.4221   73.6802    2.2594 C   0  0  1  0  0  0  0  0  0  0  0  0
   20.2743   74.5757    1.0277 C   0  0  1  0  0  0  0  0  0  0  0  0
   21.8959   73.3988    2.5459 C   0  0  2  0  0  0  0  0  0  0  0  0
   21.0956   74.0363   -0.1511 C   0  0  1  0  0  0  0  0  0  0  0  0
   22.6317   72.9135    1.2956 C   0  0  1  0  0  0  0  0  0  0  0  0
   18.9139   74.5418    3.2044 H   0  0  0  0  0  0  0  0  0  0  0  0
   18.3848   74.9725    1.4385 H   0  0  0  0  0  0  0  0  0  0  0  0
   21.5287   72.7505    4.3711 H   0  0  0  0  0  0  0  0  0  0  0  0
   19.9904   74.6734   -2.1714 O   0  0  0  0  0  0  0  0  0  0  0  0
   21.0893   74.9959   -1.3391 C   0  0  0  0  0  0  0  0  0  0  0  0
   19.9735   75.2763   -2.9316 H   0  0  0  0  0  0  0  0  0  0  0  0
 25 28  1  0
 25 24  1  0
 25 26  1  6
 25 27  2  0
  1  4  1  0
  1 24  1  0
  1  2  1  1
  1  3  2  0
  6 11  1  0
  6 12  1  0
 29 36  1  0
 29 37  1  0
  9  7  1  1
  7 13  1  0
 10  8  1  1
  8 14  1  0
 37 28  1  6
  4  5  1  0
 33 30  1  1
 30 38  1  0
 34 31  1  6
 31 39  1  0
 35 32  1  1
 32 40  1  0
 41 42  1  0
 41 43  1  0
 15 19  2  0
 16 22  2  0
 12 17  1  6
 17 19  1  0
 17 20  1  0
 18 19  1  0
 18 22  1  0
 18 23  1  0
  9 10  1  0
  9 11  1  0
 10 12  1  0
 11  5  1  6
 33 34  1  0
 33 35  1  0
 34 36  1  0
 35 37  1  0
 36 42  1  6
 20 21  2  0
 21 22  1  0
M  CHG  2   2  -1  26  -1
M  END
>  <COMPND>  (141) 
    8629 

>  <AUTHOR>  (141) 
    GENERATED BY OPEN BABEL 3.1.1

>  <MASTER>  (141) 
        0    0    0    0    0    0    0    0   58    0   58    0

>  <minimizedAffinity>  (141) 
-8.20867

>  <CNNscore>  (141) 
0.8488546610

>  <CNNaffinity>  (141) 
4.7354931831

>  <CNN_VS>  (141) 
4.0197453499

>  <CNNaffinity_variance>  (141) 
0.0139560075

$$$$
142
     RDKit          3D

 43 45  0  0  0  0  0  0  0  0999 V2000
   21.9314   70.8606   -2.9787 P   0  0  2  0  0  0  0  0  0  0  0  0
   22.3871   72.3351   -3.4640 O   0  0  0  0  0  0  0  0  0  0  0  0
   23.0426   69.8584   -2.8675 O   0  0  0  0  0  0  0  0  0  0  0  0
   20.7328   70.4710   -3.9934 O   0  0  0  0  0  0  0  0  0  0  0  0
   19.6259   69.7464   -3.4857 C   0  0  0  0  0  0  0  0  0  0  0  0
   18.4371   71.4319   -4.7185 O   0  0  0  0  0  0  0  0  0  0  0  0
   16.0528   70.7024   -3.0530 O   0  0  0  0  0  0  0  0  0  0  0  0
   15.5565   69.4071   -5.4008 O   0  0  0  0  0  0  0  0  0  0  0  0
   17.0856   69.8628   -3.5663 C   0  0  1  0  0  0  0  0  0  0  0  0
   16.9039   69.6564   -5.0556 C   0  0  2  0  0  0  0  0  0  0  0  0
   18.3943   70.6411   -3.5105 C   0  0  1  0  0  0  0  0  0  0  0  0
   17.4190   70.9691   -5.6208 C   0  0  2  0  0  0  0  0  0  0  0  0
   15.2072   70.2268   -3.0782 H   0  0  0  0  0  0  0  0  0  0  0  0
   15.2757   68.5613   -5.0181 H   0  0  0  0  0  0  0  0  0  0  0  0
   15.9168   70.7626   -8.0038 O   0  0  0  0  0  0  0  0  0  0  0  0
   19.7174   70.3812  -10.5828 O   0  0  0  0  0  0  0  0  0  0  0  0
   17.9903   70.8155   -6.9291 N   0  0  0  0  0  0  0  0  0  0  0  0
   17.8105   70.5730   -9.2860 N   0  0  0  0  0  0  0  0  0  0  0  0
   17.1475   70.7201   -8.0609 C   0  0  0  0  0  0  0  0  0  0  0  0
   19.3716   70.7612   -7.0800 C   0  0  0  0  0  0  0  0  0  0  0  0
   19.9881   70.6193   -8.2552 C   0  0  0  0  0  0  0  0  0  0  0  0
   19.1803   70.5125   -9.4873 C   0  0  0  0  0  0  0  0  0  0  0  0
   17.2437   70.5042  -10.0884 H   0  0  0  0  0  0  0  0  0  0  0  0
   21.1527   71.1583   -1.5938 O   0  0  0  0  0  0  0  0  0  0  0  0
   21.7063   71.5714   -0.1323 P   0  0  2  0  0  0  0  0  0  0  0  0
   22.9613   70.5737    0.0847 O   0  0  0  0  0  0  0  0  0  0  0  0
   20.6736   71.5133    0.9559 O   0  0  0  0  0  0  0  0  0  0  0  0
   22.3735   73.0256   -0.3443 O   0  0  0  0  0  0  0  0  0  0  0  0
   21.3316   74.6232    1.0624 O   0  0  0  0  0  0  0  0  0  0  0  0
   23.6957   77.1602   -1.1795 O   0  0  0  0  0  0  0  0  0  0  0  0
   24.3830   76.6311    1.5583 O   0  0  0  0  0  0  0  0  0  0  0  0
   22.4127   74.8918   -2.4397 O   0  0  0  0  0  0  0  0  0  0  0  0
   23.3696   75.9463   -0.4971 C   0  0  1  0  0  0  0  0  0  0  0  0
   23.1314   76.2746    0.9781 C   0  0  1  0  0  0  0  0  0  0  0  0
   22.1134   75.3436   -1.1234 C   0  0  2  0  0  0  0  0  0  0  0  0
   22.5198   75.0786    1.7201 C   0  0  1  0  0  0  0  0  0  0  0  0
   21.5587   74.1932   -0.2813 C   0  0  1  0  0  0  0  0  0  0  0  0
   24.4927   77.5477   -0.7870 H   0  0  0  0  0  0  0  0  0  0  0  0
   24.7587   77.3872    1.0804 H   0  0  0  0  0  0  0  0  0  0  0  0
   22.7627   75.6292   -2.9628 H   0  0  0  0  0  0  0  0  0  0  0  0
   22.9294   74.6739    4.0390 O   0  0  0  0  0  0  0  0  0  0  0  0
   22.1284   75.4337    3.1528 C   0  0  0  0  0  0  0  0  0  0  0  0
   22.6915   74.8898    4.9547 H   0  0  0  0  0  0  0  0  0  0  0  0
 25 28  1  0
 25 24  1  0
 25 26  1  1
 25 27  2  0
  1  4  1  0
  1 24  1  0
  1  2  1  6
  1  3  2  0
  6 11  1  0
  6 12  1  0
 29 36  1  0
 29 37  1  0
  9  7  1  6
  7 13  1  0
 10  8  1  1
  8 14  1  0
 37 28  1  1
  4  5  1  0
 33 30  1  6
 30 38  1  0
 34 31  1  1
 31 39  1  0
 35 32  1  6
 32 40  1  0
 41 42  1  0
 41 43  1  0
 15 19  2  0
 16 22  2  0
 12 17  1  6
 17 19  1  0
 17 20  1  0
 18 19  1  0
 18 22  1  0
 18 23  1  0
  9 10  1  0
  9 11  1  0
 10 12  1  0
 11  5  1  6
 33 34  1  0
 33 35  1  0
 34 36  1  0
 35 37  1  0
 36 42  1  1
 20 21  2  0
 21 22  1  0
M  CHG  2   2  -1  26  -1
M  END
>  <COMPND>  (142) 
    8629 

>  <AUTHOR>  (142) 
    GENERATED BY OPEN BABEL 3.1.1

>  <MASTER>  (142) 
        0    0    0    0    0    0    0    0   58    0   58    0

>  <minimizedAffinity>  (142) 
-7.20308

>  <CNNscore>  (142) 
0.7633109093

>  <CNNaffinity>  (142) 
4.6141262054

>  <CNN_VS>  (142) 
3.5220129490

>  <CNNaffinity_variance>  (142) 
0.0992342681

$$$$
143
     RDKit          3D

 43 45  0  0  0  0  0  0  0  0999 V2000
   20.9482   70.2639   -1.0873 P   0  0  2  0  0  0  0  0  0  0  0  0
   22.3461   69.6506   -1.6232 O   0  0  0  0  0  0  0  0  0  0  0  0
   19.8829   69.2494   -0.7919 O   0  0  0  0  0  0  0  0  0  0  0  0
   20.5661   71.3827   -2.1918 O   0  0  0  0  0  0  0  0  0  0  0  0
   19.9405   70.9623   -3.3917 C   0  0  0  0  0  0  0  0  0  0  0  0
   18.4346   72.1842   -4.8105 O   0  0  0  0  0  0  0  0  0  0  0  0
   16.2673   71.3481   -2.9146 O   0  0  0  0  0  0  0  0  0  0  0  0
   15.9460   69.6078   -4.9894 O   0  0  0  0  0  0  0  0  0  0  0  0
   17.4192   70.6242   -3.3438 C   0  0  1  0  0  0  0  0  0  0  0  0
   17.2359   70.1402   -4.7671 C   0  0  2  0  0  0  0  0  0  0  0  0
   18.5681   71.6142   -3.4900 C   0  0  1  0  0  0  0  0  0  0  0  0
   17.4912   71.4069   -5.5660 C   0  0  2  0  0  0  0  0  0  0  0  0
   15.5204   70.7367   -2.8139 H   0  0  0  0  0  0  0  0  0  0  0  0
   15.8322   68.8036   -4.4593 H   0  0  0  0  0  0  0  0  0  0  0  0
   15.9623   70.7280   -7.8419 O   0  0  0  0  0  0  0  0  0  0  0  0
   19.7193   70.3816  -10.4888 O   0  0  0  0  0  0  0  0  0  0  0  0
   18.0440   71.1345   -6.8628 N   0  0  0  0  0  0  0  0  0  0  0  0
   17.8342   70.5562   -9.1580 N   0  0  0  0  0  0  0  0  0  0  0  0
   17.1890   70.8017   -7.9393 C   0  0  0  0  0  0  0  0  0  0  0  0
   19.4195   71.1989   -7.0573 C   0  0  0  0  0  0  0  0  0  0  0  0
   20.0192   70.9607   -8.2256 C   0  0  0  0  0  0  0  0  0  0  0  0
   19.1977   70.6064   -9.4011 C   0  0  0  0  0  0  0  0  0  0  0  0
   17.2587   70.3222   -9.9221 H   0  0  0  0  0  0  0  0  0  0  0  0
   21.4043   71.1504    0.1851 O   0  0  0  0  0  0  0  0  0  0  0  0
   20.7135   72.4310    0.8891 P   0  0  2  0  0  0  0  0  0  0  0  0
   21.5026   72.5515    2.2963 O   0  0  0  0  0  0  0  0  0  0  0  0
   19.2215   72.3297    1.0224 O   0  0  0  0  0  0  0  0  0  0  0  0
   21.2235   73.6961    0.0262 O   0  0  0  0  0  0  0  0  0  0  0  0
   22.6527   73.6166   -1.8627 O   0  0  0  0  0  0  0  0  0  0  0  0
   23.7197   77.3212   -0.3833 O   0  0  0  0  0  0  0  0  0  0  0  0
   22.1456   77.1510   -2.7794 O   0  0  0  0  0  0  0  0  0  0  0  0
   23.1686   75.1421    1.4408 O   0  0  0  0  0  0  0  0  0  0  0  0
   22.8273   76.2422   -0.6745 C   0  0  1  0  0  0  0  0  0  0  0  0
   22.8053   76.0339   -2.1901 C   0  0  1  0  0  0  0  0  0  0  0  0
   23.3197   74.9819    0.0344 C   0  0  2  0  0  0  0  0  0  0  0  0
   22.0835   74.7310   -2.5597 C   0  0  1  0  0  0  0  0  0  0  0  0
   22.5693   73.7366   -0.4412 C   0  0  1  0  0  0  0  0  0  0  0  0
   23.4124   78.1246   -0.8300 H   0  0  0  0  0  0  0  0  0  0  0  0
   22.6110   77.9672   -2.5378 H   0  0  0  0  0  0  0  0  0  0  0  0
   23.6484   75.9335    1.7294 H   0  0  0  0  0  0  0  0  0  0  0  0
   20.8880   74.1511   -4.5455 O   0  0  0  0  0  0  0  0  0  0  0  0
   22.1866   74.4236   -4.0520 C   0  0  0  0  0  0  0  0  0  0  0  0
   20.9381   73.9540   -5.4944 H   0  0  0  0  0  0  0  0  0  0  0  0
 25 28  1  0
 25 24  1  0
 25 26  1  1
 25 27  2  0
  1  4  1  0
  1 24  1  0
  1  2  1  6
  1  3  2  0
  6 11  1  0
  6 12  1  0
 29 36  1  0
 29 37  1  0
  9  7  1  6
  7 13  1  0
 10  8  1  1
  8 14  1  0
 37 28  1  6
  4  5  1  0
 33 30  1  6
 30 38  1  0
 34 31  1  6
 31 39  1  0
 35 32  1  1
 32 40  1  0
 41 42  1  0
 41 43  1  0
 15 19  2  0
 16 22  2  0
 12 17  1  6
 17 19  1  0
 17 20  1  0
 18 19  1  0
 18 22  1  0
 18 23  1  0
  9 10  1  0
  9 11  1  0
 10 12  1  0
 11  5  1  6
 33 34  1  0
 33 35  1  0
 34 36  1  0
 35 37  1  0
 36 42  1  6
 20 21  2  0
 21 22  1  0
M  CHG  2   2  -1  26  -1
M  END
>  <COMPND>  (143) 
    8629 

>  <AUTHOR>  (143) 
    GENERATED BY OPEN BABEL 3.1.1

>  <MASTER>  (143) 
        0    0    0    0    0    0    0    0   58    0   58    0

>  <minimizedAffinity>  (143) 
-7.06841

>  <CNNscore>  (143) 
0.6888979673

>  <CNNaffinity>  (143) 
4.5458669662

>  <CNN_VS>  (143) 
3.1316385269

>  <CNNaffinity_variance>  (143) 
0.0811904520

$$$$
144
     RDKit          3D

 43 45  0  0  0  0  0  0  0  0999 V2000
   21.0207   70.1964   -2.2474 P   0  0  2  0  0  0  0  0  0  0  0  0
   20.6744   71.7767   -2.2676 O   0  0  0  0  0  0  0  0  0  0  0  0
   21.6837   69.6770   -3.4892 O   0  0  0  0  0  0  0  0  0  0  0  0
   19.6158   69.4959   -1.8555 O   0  0  0  0  0  0  0  0  0  0  0  0
   18.7673   69.0517   -2.8997 C   0  0  0  0  0  0  0  0  0  0  0  0
   17.9064   70.9607   -4.0780 O   0  0  0  0  0  0  0  0  0  0  0  0
   15.2137   70.1578   -3.0313 O   0  0  0  0  0  0  0  0  0  0  0  0
   15.1554   69.2307   -5.5952 O   0  0  0  0  0  0  0  0  0  0  0  0
   16.3000   69.3346   -3.4527 C   0  0  1  0  0  0  0  0  0  0  0  0
   16.4138   69.3465   -4.9628 C   0  0  2  0  0  0  0  0  0  0  0  0
   17.5960   70.0156   -3.0307 C   0  0  1  0  0  0  0  0  0  0  0  0
   17.0751   70.6901   -5.2184 C   0  0  2  0  0  0  0  0  0  0  0  0
   14.3750   69.7432   -3.2894 H   0  0  0  0  0  0  0  0  0  0  0  0
   14.7756   68.3592   -5.4026 H   0  0  0  0  0  0  0  0  0  0  0  0
   16.0657   70.7036   -7.8564 O   0  0  0  0  0  0  0  0  0  0  0  0
   20.3014   70.6597   -9.6726 O   0  0  0  0  0  0  0  0  0  0  0  0
   17.8916   70.6829   -6.3994 N   0  0  0  0  0  0  0  0  0  0  0  0
   18.1756   70.6819   -8.7586 N   0  0  0  0  0  0  0  0  0  0  0  0
   17.2853   70.6896   -7.6772 C   0  0  0  0  0  0  0  0  0  0  0  0
   19.2774   70.6696   -6.2837 C   0  0  0  0  0  0  0  0  0  0  0  0
   20.1123   70.6610   -7.3249 C   0  0  0  0  0  0  0  0  0  0  0  0
   19.5599   70.6673   -8.6948 C   0  0  0  0  0  0  0  0  0  0  0  0
   17.7758   70.6860   -9.6586 H   0  0  0  0  0  0  0  0  0  0  0  0
   21.8967   70.0335   -0.8987 O   0  0  0  0  0  0  0  0  0  0  0  0
   23.1527   70.8836   -0.3395 P   0  0  2  0  0  0  0  0  0  0  0  0
   23.8970   71.3769   -1.6887 O   0  0  0  0  0  0  0  0  0  0  0  0
   24.0333   70.1267    0.6121 O   0  0  0  0  0  0  0  0  0  0  0  0
   22.4971   72.2232    0.2775 O   0  0  0  0  0  0  0  0  0  0  0  0
   22.4987   73.0178    2.5102 O   0  0  0  0  0  0  0  0  0  0  0  0
   18.7330   74.2685    1.3675 O   0  0  0  0  0  0  0  0  0  0  0  0
   20.8286   76.2034    1.7029 O   0  0  0  0  0  0  0  0  0  0  0  0
   19.7435   71.7129    0.4580 O   0  0  0  0  0  0  0  0  0  0  0  0
   20.1212   73.9784    1.1833 C   0  0  1  0  0  0  0  0  0  0  0  0
   20.9259   74.8529    2.1469 C   0  0  1  0  0  0  0  0  0  0  0  0
   20.3642   72.4979    1.4704 C   0  0  2  0  0  0  0  0  0  0  0  0
   22.3949   74.4123    2.1997 C   0  0  1  0  0  0  0  0  0  0  0  0
   21.8575   72.1757    1.5502 C   0  0  1  0  0  0  0  0  0  0  0  0
   18.5718   75.2069    1.1863 H   0  0  0  0  0  0  0  0  0  0  0  0
   19.8960   76.4690    1.6736 H   0  0  0  0  0  0  0  0  0  0  0  0
   18.7986   71.9259    0.4176 H   0  0  0  0  0  0  0  0  0  0  0  0
   23.0972   74.4427    4.4833 O   0  0  0  0  0  0  0  0  0  0  0  0
   23.1803   75.1672    3.2699 C   0  0  0  0  0  0  0  0  0  0  0  0
   23.5928   74.9113    5.1736 H   0  0  0  0  0  0  0  0  0  0  0  0
 25 28  1  0
 25 24  1  0
 25 26  1  6
 25 27  2  0
  1  4  1  0
  1 24  1  0
  1  2  1  6
  1  3  2  0
  6 11  1  0
  6 12  1  0
 29 36  1  0
 29 37  1  0
  9  7  1  6
  7 13  1  0
 10  8  1  6
  8 14  1  0
 37 28  1  6
  4  5  1  0
 33 30  1  1
 30 38  1  0
 34 31  1  6
 31 39  1  0
 35 32  1  6
 32 40  1  0
 41 42  1  0
 41 43  1  0
 15 19  2  0
 16 22  2  0
 12 17  1  6
 17 19  1  0
 17 20  1  0
 18 19  1  0
 18 22  1  0
 18 23  1  0
  9 10  1  0
  9 11  1  0
 10 12  1  0
 11  5  1  6
 33 34  1  0
 33 35  1  0
 34 36  1  0
 35 37  1  0
 36 42  1  1
 20 21  2  0
 21 22  1  0
M  CHG  2   2  -1  26  -1
M  END
>  <COMPND>  (144) 
    8629 

>  <AUTHOR>  (144) 
    GENERATED BY OPEN BABEL 3.1.1

>  <MASTER>  (144) 
        0    0    0    0    0    0    0    0   58    0   58    0

>  <minimizedAffinity>  (144) 
-8.17342

>  <CNNscore>  (144) 
0.6787714958

>  <CNNaffinity>  (144) 
4.5912866592

>  <CNN_VS>  (144) 
3.1164345741

>  <CNNaffinity_variance>  (144) 
0.0182008687

$$$$
145
     RDKit          3D

 43 45  0  0  0  0  0  0  0  0999 V2000
   22.5728   71.2382   -2.7326 P   0  0  2  0  0  0  0  0  0  0  0  0
   21.9202   72.0055   -3.9985 O   0  0  0  0  0  0  0  0  0  0  0  0
   24.0571   71.0333   -2.8120 O   0  0  0  0  0  0  0  0  0  0  0  0
   21.6843   69.8932   -2.5933 O   0  0  0  0  0  0  0  0  0  0  0  0
   20.7831   69.5672   -3.6371 C   0  0  0  0  0  0  0  0  0  0  0  0
   18.8628   70.8801   -4.2388 O   0  0  0  0  0  0  0  0  0  0  0  0
   17.3321   69.1944   -2.2880 O   0  0  0  0  0  0  0  0  0  0  0  0
   16.6525   68.0916   -4.6877 O   0  0  0  0  0  0  0  0  0  0  0  0
   18.3977   68.8219   -3.1604 C   0  0  1  0  0  0  0  0  0  0  0  0
   17.9033   68.7417   -4.5897 C   0  0  2  0  0  0  0  0  0  0  0  0
   19.3778   69.9864   -3.2278 C   0  0  1  0  0  0  0  0  0  0  0  0
   17.8324   70.2079   -4.9813 C   0  0  2  0  0  0  0  0  0  0  0  0
   16.6934   68.4660   -2.2287 H   0  0  0  0  0  0  0  0  0  0  0  0
   16.7499   67.1621   -4.4283 H   0  0  0  0  0  0  0  0  0  0  0  0
   15.8239   70.0605   -6.9618 O   0  0  0  0  0  0  0  0  0  0  0  0
   18.8216   71.0063  -10.3323 O   0  0  0  0  0  0  0  0  0  0  0  0
   18.0600   70.4117   -6.3842 N   0  0  0  0  0  0  0  0  0  0  0  0
   17.3181   70.5317   -8.6384 N   0  0  0  0  0  0  0  0  0  0  0  0
   16.9831   70.3143   -7.2959 C   0  0  0  0  0  0  0  0  0  0  0  0
   19.3396   70.7048   -6.8432 C   0  0  0  0  0  0  0  0  0  0  0  0
   19.6428   70.9081   -8.1270 C   0  0  0  0  0  0  0  0  0  0  0  0
   18.5748   70.8246   -9.1441 C   0  0  0  0  0  0  0  0  0  0  0  0
   16.5840   70.4686   -9.2917 H   0  0  0  0  0  0  0  0  0  0  0  0
   22.0830   72.1289   -1.4757 O   0  0  0  0  0  0  0  0  0  0  0  0
   21.8228   71.7319    0.0695 P   0  0  2  0  0  0  0  0  0  0  0  0
   23.0973   70.8043    0.4339 O   0  0  0  0  0  0  0  0  0  0  0  0
   20.4925   71.0838    0.3227 O   0  0  0  0  0  0  0  0  0  0  0  0
   22.0670   73.1005    0.8896 O   0  0  0  0  0  0  0  0  0  0  0  0
   20.1413   74.4582    0.6348 O   0  0  0  0  0  0  0  0  0  0  0  0
   22.5143   77.0736    2.7747 O   0  0  0  0  0  0  0  0  0  0  0  0
   20.2716   75.8200    4.0579 O   0  0  0  0  0  0  0  0  0  0  0  0
   23.6970   75.3803    0.7466 O   0  0  0  0  0  0  0  0  0  0  0  0
   21.9947   75.7952    2.3993 C   0  0  1  0  0  0  0  0  0  0  0  0
   20.4853   75.7988    2.6493 C   0  0  1  0  0  0  0  0  0  0  0  0
   22.2944   75.5489    0.9218 C   0  0  2  0  0  0  0  0  0  0  0  0
   19.8176   74.5656    2.0260 C   0  0  1  0  0  0  0  0  0  0  0  0
   21.5429   74.3277    0.3890 C   0  0  1  0  0  0  0  0  0  0  0  0
   22.3278   77.2360    3.7120 H   0  0  0  0  0  0  0  0  0  0  0  0
   20.6986   76.6033    4.4392 H   0  0  0  0  0  0  0  0  0  0  0  0
   24.1613   76.1601    1.0874 H   0  0  0  0  0  0  0  0  0  0  0  0
   17.8564   73.5723    2.9619 O   0  0  0  0  0  0  0  0  0  0  0  0
   18.2951   74.6276    2.1263 C   0  0  0  0  0  0  0  0  0  0  0  0
   16.8891   73.5994    3.0352 H   0  0  0  0  0  0  0  0  0  0  0  0
 25 28  1  0
 25 24  1  0
 25 26  1  1
 25 27  2  0
  1  4  1  0
  1 24  1  0
  1  2  1  6
  1  3  2  0
  6 11  1  0
  6 12  1  0
 29 36  1  0
 29 37  1  0
  9  7  1  1
  7 13  1  0
 10  8  1  1
  8 14  1  0
 37 28  1  1
  4  5  1  0
 33 30  1  6
 30 38  1  0
 34 31  1  1
 31 39  1  0
 35 32  1  1
 32 40  1  0
 41 42  1  0
 41 43  1  0
 15 19  2  0
 16 22  2  0
 12 17  1  6
 17 19  1  0
 17 20  1  0
 18 19  1  0
 18 22  1  0
 18 23  1  0
  9 10  1  0
  9 11  1  0
 10 12  1  0
 11  5  1  6
 33 34  1  0
 33 35  1  0
 34 36  1  0
 35 37  1  0
 36 42  1  6
 20 21  2  0
 21 22  1  0
M  CHG  2   2  -1  26  -1
M  END
>  <COMPND>  (145) 
    8629 

>  <AUTHOR>  (145) 
    GENERATED BY OPEN BABEL 3.1.1

>  <MASTER>  (145) 
        0    0    0    0    0    0    0    0   58    0   58    0

>  <minimizedAffinity>  (145) 
-7.46081

>  <CNNscore>  (145) 
0.5597629547

>  <CNNaffinity>  (145) 
4.5156898499

>  <CNN_VS>  (145) 
2.5277159214

>  <CNNaffinity_variance>  (145) 
0.0480586663

$$$$
146
     RDKit          3D

 43 45  0  0  0  0  0  0  0  0999 V2000
   22.5192   72.7636   -5.0083 P   0  0  2  0  0  0  0  0  0  0  0  0
   23.9150   73.0001   -4.2252 O   0  0  0  0  0  0  0  0  0  0  0  0
   22.6052   72.8684   -6.5026 O   0  0  0  0  0  0  0  0  0  0  0  0
   21.4925   73.7872   -4.2900 O   0  0  0  0  0  0  0  0  0  0  0  0
   20.5167   74.4361   -5.0866 C   0  0  0  0  0  0  0  0  0  0  0  0
   18.2268   73.8585   -5.5300 O   0  0  0  0  0  0  0  0  0  0  0  0
   18.0081   73.2530   -2.6015 O   0  0  0  0  0  0  0  0  0  0  0  0
   18.2787   70.7729   -3.7026 O   0  0  0  0  0  0  0  0  0  0  0  0
   19.1089   73.0477   -3.4854 C   0  0  1  0  0  0  0  0  0  0  0  0
   18.8386   71.8689   -4.3969 C   0  0  2  0  0  0  0  0  0  0  0  0
   19.1430   74.2099   -4.4701 C   0  0  1  0  0  0  0  0  0  0  0  0
   17.8808   72.4688   -5.4123 C   0  0  2  0  0  0  0  0  0  0  0  0
   17.9661   72.5233   -1.9629 H   0  0  0  0  0  0  0  0  0  0  0  0
   18.9262   70.4265   -3.0689 H   0  0  0  0  0  0  0  0  0  0  0  0
   16.5983   70.0605   -6.1428 O   0  0  0  0  0  0  0  0  0  0  0  0
   18.3817   70.1855  -10.3907 O   0  0  0  0  0  0  0  0  0  0  0  0
   17.9923   71.8495   -6.7028 N   0  0  0  0  0  0  0  0  0  0  0  0
   17.4872   70.1248   -8.2574 N   0  0  0  0  0  0  0  0  0  0  0  0
   17.3084   70.6400   -6.9672 C   0  0  0  0  0  0  0  0  0  0  0  0
   18.7726   72.4411   -7.6902 C   0  0  0  0  0  0  0  0  0  0  0  0
   18.9338   71.9364   -8.9152 C   0  0  0  0  0  0  0  0  0  0  0  0
   18.2533   70.6750   -9.2728 C   0  0  0  0  0  0  0  0  0  0  0  0
   17.0206   69.2826   -8.4643 H   0  0  0  0  0  0  0  0  0  0  0  0
   22.0358   71.3211   -4.4618 O   0  0  0  0  0  0  0  0  0  0  0  0
   22.0748   70.6805   -2.9782 P   0  0  2  0  0  0  0  0  0  0  0  0
   23.6113   70.1984   -2.8225 O   0  0  0  0  0  0  0  0  0  0  0  0
   21.0599   69.5983   -2.7484 O   0  0  0  0  0  0  0  0  0  0  0  0
   21.9414   71.9447   -1.9838 O   0  0  0  0  0  0  0  0  0  0  0  0
   23.2282   72.9732   -0.2800 O   0  0  0  0  0  0  0  0  0  0  0  0
   19.6084   72.7175    1.6905 O   0  0  0  0  0  0  0  0  0  0  0  0
   20.5500   75.2735    0.7804 O   0  0  0  0  0  0  0  0  0  0  0  0
   20.4668   70.5603   -0.0385 O   0  0  0  0  0  0  0  0  0  0  0  0
   20.4672   72.8933    0.5604 C   0  0  1  0  0  0  0  0  0  0  0  0
   21.3639   74.1047    0.8234 C   0  0  1  0  0  0  0  0  0  0  0  0
   21.3086   71.6324    0.3720 C   0  0  2  0  0  0  0  0  0  0  0  0
   22.4882   74.1980   -0.2170 C   0  0  1  0  0  0  0  0  0  0  0  0
   22.4283   71.8477   -0.6478 C   0  0  1  0  0  0  0  0  0  0  0  0
   19.0711   73.5145    1.8154 H   0  0  0  0  0  0  0  0  0  0  0  0
   19.8438   75.2017    1.4417 H   0  0  0  0  0  0  0  0  0  0  0  0
   19.7624   70.4339    0.6155 H   0  0  0  0  0  0  0  0  0  0  0  0
   23.4283   75.5574    1.5085 O   0  0  0  0  0  0  0  0  0  0  0  0
   23.4857   75.3052    0.1166 C   0  0  0  0  0  0  0  0  0  0  0  0
   24.0582   76.2598    1.7354 H   0  0  0  0  0  0  0  0  0  0  0  0
 25 28  1  0
 25 24  1  0
 25 26  1  1
 25 27  2  0
  1  4  1  0
  1 24  1  0
  1  2  1  1
  1  3  2  0
  6 11  1  0
  6 12  1  0
 29 36  1  0
 29 37  1  0
  9  7  1  1
  7 13  1  0
 10  8  1  1
  8 14  1  0
 37 28  1  6
  4  5  1  0
 33 30  1  1
 30 38  1  0
 34 31  1  6
 31 39  1  0
 35 32  1  6
 32 40  1  0
 41 42  1  0
 41 43  1  0
 15 19  2  0
 16 22  2  0
 12 17  1  6
 17 19  1  0
 17 20  1  0
 18 19  1  0
 18 22  1  0
 18 23  1  0
  9 10  1  0
  9 11  1  0
 10 12  1  0
 11  5  1  6
 33 34  1  0
 33 35  1  0
 34 36  1  0
 35 37  1  0
 36 42  1  1
 20 21  2  0
 21 22  1  0
M  CHG  2   2  -1  26  -1
M  END
>  <COMPND>  (146) 
    8629 

>  <AUTHOR>  (146) 
    GENERATED BY OPEN BABEL 3.1.1

>  <MASTER>  (146) 
        0    0    0    0    0    0    0    0   58    0   58    0

>  <minimizedAffinity>  (146) 
-6.82520

>  <CNNscore>  (146) 
0.4550059736

>  <CNNaffinity>  (146) 
4.2750978470

>  <CNN_VS>  (146) 
1.9451950788

>  <CNNaffinity_variance>  (146) 
0.0381910875

$$$$
147
     RDKit          3D

 43 45  0  0  0  0  0  0  0  0999 V2000
   19.7951   74.0413   -3.6985 P   0  0  2  0  0  0  0  0  0  0  0  0
   19.2539   75.5611   -3.8197 O   0  0  0  0  0  0  0  0  0  0  0  0
   18.7341   72.9829   -3.7737 O   0  0  0  0  0  0  0  0  0  0  0  0
   20.6825   74.0517   -2.3457 O   0  0  0  0  0  0  0  0  0  0  0  0
   20.0884   74.5288   -1.1510 C   0  0  0  0  0  0  0  0  0  0  0  0
   21.4361   73.9087    0.7393 O   0  0  0  0  0  0  0  0  0  0  0  0
   19.1611   72.1269    1.5397 O   0  0  0  0  0  0  0  0  0  0  0  0
   18.8288   74.2852    3.1730 O   0  0  0  0  0  0  0  0  0  0  0  0
   19.1260   73.4130    0.9231 C   0  0  1  0  0  0  0  0  0  0  0  0
   19.4716   74.4890    1.9312 C   0  0  2  0  0  0  0  0  0  0  0  0
   20.2965   73.4996   -0.0484 C   0  0  1  0  0  0  0  0  0  0  0  0
   20.9822   74.3581    2.0264 C   0  0  2  0  0  0  0  0  0  0  0  0
   18.4226   72.0478    2.1644 H   0  0  0  0  0  0  0  0  0  0  0  0
   17.8700   74.3789    3.0602 H   0  0  0  0  0  0  0  0  0  0  0  0
   23.1042   74.6490    3.8677 O   0  0  0  0  0  0  0  0  0  0  0  0
   23.3566   79.1928    3.1387 O   0  0  0  0  0  0  0  0  0  0  0  0
   21.6216   75.6056    2.3368 N   0  0  0  0  0  0  0  0  0  0  0  0
   23.2283   76.9112    3.5031 N   0  0  0  0  0  0  0  0  0  0  0  0
   22.6775   75.6433    3.2770 C   0  0  0  0  0  0  0  0  0  0  0  0
   21.2008   76.7744    1.7116 C   0  0  0  0  0  0  0  0  0  0  0  0
   21.7357   77.9758    1.9392 C   0  0  0  0  0  0  0  0  0  0  0  0
   22.8439   78.1021    2.9076 C   0  0  0  0  0  0  0  0  0  0  0  0
   23.9651   76.9619    4.1545 H   0  0  0  0  0  0  0  0  0  0  0  0
   20.9114   73.9589   -4.8647 O   0  0  0  0  0  0  0  0  0  0  0  0
   21.4905   72.6971   -5.6926 P   0  0  2  0  0  0  0  0  0  0  0  0
   21.6093   71.5391   -4.5690 O   0  0  0  0  0  0  0  0  0  0  0  0
   22.7679   72.9784   -6.4294 O   0  0  0  0  0  0  0  0  0  0  0  0
   20.2653   72.2284   -6.6330 O   0  0  0  0  0  0  0  0  0  0  0  0
   19.0677   70.2520   -6.1077 O   0  0  0  0  0  0  0  0  0  0  0  0
   18.1070   70.5610  -10.1117 O   0  0  0  0  0  0  0  0  0  0  0  0
   16.1134   71.1380   -8.1266 O   0  0  0  0  0  0  0  0  0  0  0  0
   20.7726   71.2397   -9.2098 O   0  0  0  0  0  0  0  0  0  0  0  0
   18.4063   71.0514   -8.8020 C   0  0  1  0  0  0  0  0  0  0  0  0
   17.3556   70.5045   -7.8335 C   0  0  1  0  0  0  0  0  0  0  0  0
   19.8035   70.5822   -8.4005 C   0  0  2  0  0  0  0  0  0  0  0  0
   17.7574   70.7649   -6.3755 C   0  0  1  0  0  0  0  0  0  0  0  0
   20.0835   70.8442   -6.9196 C   0  0  1  0  0  0  0  0  0  0  0  0
   17.2214   70.8558  -10.3729 H   0  0  0  0  0  0  0  0  0  0  0  0
   15.8715   70.9663   -9.0503 H   0  0  0  0  0  0  0  0  0  0  0  0
   20.5846   71.0658  -10.1448 H   0  0  0  0  0  0  0  0  0  0  0  0
   17.0827   70.5787   -4.0910 O   0  0  0  0  0  0  0  0  0  0  0  0
   16.8046   70.0909   -5.3906 C   0  0  0  0  0  0  0  0  0  0  0  0
   16.4835   70.1586   -3.4536 H   0  0  0  0  0  0  0  0  0  0  0  0
 25 28  1  0
 25 24  1  0
 25 26  1  1
 25 27  2  0
  1  4  1  0
  1 24  1  0
  1  2  1  6
  1  3  2  0
  6 11  1  0
  6 12  1  0
 29 36  1  0
 29 37  1  0
  9  7  1  1
  7 13  1  0
 10  8  1  1
  8 14  1  0
 37 28  1  6
  4  5  1  0
 33 30  1  6
 30 38  1  0
 34 31  1  6
 31 39  1  0
 35 32  1  6
 32 40  1  0
 41 42  1  0
 41 43  1  0
 15 19  2  0
 16 22  2  0
 12 17  1  6
 17 19  1  0
 17 20  1  0
 18 19  1  0
 18 22  1  0
 18 23  1  0
  9 10  1  0
  9 11  1  0
 10 12  1  0
 11  5  1  6
 33 34  1  0
 33 35  1  0
 34 36  1  0
 35 37  1  0
 36 42  1  1
 20 21  2  0
 21 22  1  0
M  CHG  2   2  -1  26  -1
M  END
>  <COMPND>  (147) 
    8629 

>  <AUTHOR>  (147) 
    GENERATED BY OPEN BABEL 3.1.1

>  <MASTER>  (147) 
        0    0    0    0    0    0    0    0   58    0   58    0

>  <minimizedAffinity>  (147) 
-6.75762

>  <CNNscore>  (147) 
0.4350620210

>  <CNNaffinity>  (147) 
4.2418842316

>  <CNN_VS>  (147) 
1.8454827070

>  <CNNaffinity_variance>  (147) 
0.1755281389

$$$$
148
     RDKit          3D

 43 45  0  0  0  0  0  0  0  0999 V2000
   21.6906   72.9819   -6.2271 P   0  0  2  0  0  0  0  0  0  0  0  0
   20.8564   74.2618   -6.7593 O   0  0  0  0  0  0  0  0  0  0  0  0
   23.1593   73.0107   -6.5332 O   0  0  0  0  0  0  0  0  0  0  0  0
   20.8750   71.7146   -6.8157 O   0  0  0  0  0  0  0  0  0  0  0  0
   20.3242   71.8106   -8.1177 C   0  0  0  0  0  0  0  0  0  0  0  0
   19.0427   70.0668   -7.0735 O   0  0  0  0  0  0  0  0  0  0  0  0
   17.5882   69.8289   -9.6847 O   0  0  0  0  0  0  0  0  0  0  0  0
   15.8462   71.2739   -8.1635 O   0  0  0  0  0  0  0  0  0  0  0  0
   18.0973   70.9944   -9.0385 C   0  0  1  0  0  0  0  0  0  0  0  0
   17.2230   71.3661   -7.8591 C   0  0  2  0  0  0  0  0  0  0  0  0
   19.4074   70.6189   -8.3574 C   0  0  1  0  0  0  0  0  0  0  0  0
   17.6594   70.3550   -6.8124 C   0  0  2  0  0  0  0  0  0  0  0  0
   16.7516   70.0441  -10.1272 H   0  0  0  0  0  0  0  0  0  0  0  0
   15.6179   71.9369   -8.8335 H   0  0  0  0  0  0  0  0  0  0  0  0
   16.6945   68.8553   -4.6221 O   0  0  0  0  0  0  0  0  0  0  0  0
   17.2165   72.4035   -1.7275 O   0  0  0  0  0  0  0  0  0  0  0  0
   17.5329   70.8619   -5.4751 N   0  0  0  0  0  0  0  0  0  0  0  0
   16.9553   70.6232   -3.1825 N   0  0  0  0  0  0  0  0  0  0  0  0
   17.0363   70.0267   -4.4473 C   0  0  0  0  0  0  0  0  0  0  0  0
   17.8997   72.1734   -5.1935 C   0  0  0  0  0  0  0  0  0  0  0  0
   17.8151   72.7275   -3.9823 C   0  0  0  0  0  0  0  0  0  0  0  0
   17.3063   71.9228   -2.8530 C   0  0  0  0  0  0  0  0  0  0  0  0
   16.6118   70.0605   -2.4510 H   0  0  0  0  0  0  0  0  0  0  0  0
   21.3325   72.9443   -4.6512 O   0  0  0  0  0  0  0  0  0  0  0  0
   21.6286   71.8265   -3.5217 P   0  0  2  0  0  0  0  0  0  0  0  0
   23.2353   71.6483   -3.5882 O   0  0  0  0  0  0  0  0  0  0  0  0
   20.8562   70.5516   -3.7003 O   0  0  0  0  0  0  0  0  0  0  0  0
   21.3598   72.5807   -2.1203 O   0  0  0  0  0  0  0  0  0  0  0  0
   22.7134   72.8912   -0.1999 O   0  0  0  0  0  0  0  0  0  0  0  0
   19.0851   72.2162    1.6523 O   0  0  0  0  0  0  0  0  0  0  0  0
   20.1964   74.8643    1.6333 O   0  0  0  0  0  0  0  0  0  0  0  0
   19.7958   70.7180   -0.7204 O   0  0  0  0  0  0  0  0  0  0  0  0
   19.9535   72.7077    0.6278 C   0  0  1  0  0  0  0  0  0  0  0  0
   20.9297   73.7004    1.2621 C   0  0  1  0  0  0  0  0  0  0  0  0
   20.7080   71.5335    0.0072 C   0  0  2  0  0  0  0  0  0  0  0  0
   22.0575   74.0673    0.2882 C   0  0  1  0  0  0  0  0  0  0  0  0
   21.8394   72.0085   -0.9063 C   0  0  1  0  0  0  0  0  0  0  0  0
   18.6026   72.9568    2.0501 H   0  0  0  0  0  0  0  0  0  0  0  0
   19.4871   74.6187    2.2479 H   0  0  0  0  0  0  0  0  0  0  0  0
   19.0846   70.4235   -0.1311 H   0  0  0  0  0  0  0  0  0  0  0  0
   22.5830   76.2170    1.1890 O   0  0  0  0  0  0  0  0  0  0  0  0
   23.1274   74.9319    0.9516 C   0  0  0  0  0  0  0  0  0  0  0  0
   23.2527   76.7782    1.6113 H   0  0  0  0  0  0  0  0  0  0  0  0
 25 28  1  0
 25 24  1  0
 25 26  1  1
 25 27  2  0
  1  4  1  0
  1 24  1  0
  1  2  1  6
  1  3  2  0
  6 11  1  0
  6 12  1  0
 29 36  1  0
 29 37  1  0
  9  7  1  1
  7 13  1  0
 10  8  1  6
  8 14  1  0
 37 28  1  6
  4  5  1  0
 33 30  1  1
 30 38  1  0
 34 31  1  6
 31 39  1  0
 35 32  1  6
 32 40  1  0
 41 42  1  0
 41 43  1  0
 15 19  2  0
 16 22  2  0
 12 17  1  1
 17 19  1  0
 17 20  1  0
 18 19  1  0
 18 22  1  0
 18 23  1  0
  9 10  1  0
  9 11  1  0
 10 12  1  0
 11  5  1  1
 33 34  1  0
 33 35  1  0
 34 36  1  0
 35 37  1  0
 36 42  1  1
 20 21  2  0
 21 22  1  0
M  CHG  2   2  -1  26  -1
M  END
>  <COMPND>  (148) 
    8629 

>  <AUTHOR>  (148) 
    GENERATED BY OPEN BABEL 3.1.1

>  <MASTER>  (148) 
        0    0    0    0    0    0    0    0   58    0   58    0

>  <minimizedAffinity>  (148) 
-7.12509

>  <CNNscore>  (148) 
0.4074512124

>  <CNNaffinity>  (148) 
4.0526051521

>  <CNN_VS>  (148) 
1.6512389183

>  <CNNaffinity_variance>  (148) 
0.2535125017

$$$$
149
     RDKit          3D

 43 45  0  0  0  0  0  0  0  0999 V2000
   19.4548   69.9735   -2.2196 P   0  0  2  0  0  0  0  0  0  0  0  0
   19.9213   69.2998   -0.8247 O   0  0  0  0  0  0  0  0  0  0  0  0
   20.5647   70.2574   -3.1887 O   0  0  0  0  0  0  0  0  0  0  0  0
   18.5796   71.2540   -1.7590 O   0  0  0  0  0  0  0  0  0  0  0  0
   18.8848   72.5188   -2.3202 C   0  0  0  0  0  0  0  0  0  0  0  0
   20.2546   72.7782   -0.3631 O   0  0  0  0  0  0  0  0  0  0  0  0
   19.8852   75.7317   -0.7249 O   0  0  0  0  0  0  0  0  0  0  0  0
   22.3778   75.3146   -1.7494 O   0  0  0  0  0  0  0  0  0  0  0  0
   20.0226   74.7120   -1.7131 C   0  0  1  0  0  0  0  0  0  0  0  0
   21.4600   74.2407   -1.7860 C   0  0  2  0  0  0  0  0  0  0  0  0
   19.3052   73.4673   -1.2058 C   0  0  1  0  0  0  0  0  0  0  0  0
   21.5601   73.3442   -0.5636 C   0  0  2  0  0  0  0  0  0  0  0  0
   20.3353   76.5369   -1.0267 H   0  0  0  0  0  0  0  0  0  0  0  0
   22.2750   75.8553   -2.5480 H   0  0  0  0  0  0  0  0  0  0  0  0
   22.4472   71.6364    1.5039 O   0  0  0  0  0  0  0  0  0  0  0  0
   25.1981   69.2969   -1.3597 O   0  0  0  0  0  0  0  0  0  0  0  0
   22.5075   72.2800   -0.7409 N   0  0  0  0  0  0  0  0  0  0  0  0
   23.8160   70.4728    0.0764 N   0  0  0  0  0  0  0  0  0  0  0  0
   22.8870   71.4811    0.3628 C   0  0  0  0  0  0  0  0  0  0  0  0
   23.0496   72.0372   -1.9983 C   0  0  0  0  0  0  0  0  0  0  0  0
   23.9354   71.0724   -2.2546 C   0  0  0  0  0  0  0  0  0  0  0  0
   24.3846   70.1928   -1.1562 C   0  0  0  0  0  0  0  0  0  0  0  0
   24.0955   69.9039    0.8300 H   0  0  0  0  0  0  0  0  0  0  0  0
   18.3337   68.9439   -2.7636 O   0  0  0  0  0  0  0  0  0  0  0  0
   17.4376   68.9637   -4.1088 P   0  0  2  0  0  0  0  0  0  0  0  0
   16.2463   69.9964   -3.7459 O   0  0  0  0  0  0  0  0  0  0  0  0
   16.9685   67.6094   -4.5558 O   0  0  0  0  0  0  0  0  0  0  0  0
   18.3422   69.7489   -5.1907 O   0  0  0  0  0  0  0  0  0  0  0  0
   19.0610   71.9665   -5.6173 O   0  0  0  0  0  0  0  0  0  0  0  0
   17.6186   71.0077   -9.3658 O   0  0  0  0  0  0  0  0  0  0  0  0
   20.4527   71.2028   -8.9443 O   0  0  0  0  0  0  0  0  0  0  0  0
   16.2256   70.0831   -7.0027 O   0  0  0  0  0  0  0  0  0  0  0  0
   18.2561   70.7541   -8.1109 C   0  0  1  0  0  0  0  0  0  0  0  0
   19.4840   71.6607   -8.0050 C   0  0  1  0  0  0  0  0  0  0  0  0
   17.2707   71.0495   -6.9817 C   0  0  2  0  0  0  0  0  0  0  0  0
   20.0658   71.6416   -6.5851 C   0  0  1  0  0  0  0  0  0  0  0  0
   17.9610   71.0544   -5.6166 C   0  0  1  0  0  0  0  0  0  0  0  0
   18.2388   70.8217  -10.0871 H   0  0  0  0  0  0  0  0  0  0  0  0
   20.0726   71.2193   -9.8367 H   0  0  0  0  0  0  0  0  0  0  0  0
   15.7964   70.0901   -7.8719 H   0  0  0  0  0  0  0  0  0  0  0  0
   22.2852   72.2557   -7.2224 O   0  0  0  0  0  0  0  0  0  0  0  0
   21.1935   72.6573   -6.4154 C   0  0  0  0  0  0  0  0  0  0  0  0
   23.0103   72.8932   -7.1247 H   0  0  0  0  0  0  0  0  0  0  0  0
 25 28  1  0
 25 24  1  0
 25 26  1  1
 25 27  2  0
  1  4  1  0
  1 24  1  0
  1  2  1  1
  1  3  2  0
  6 11  1  0
  6 12  1  0
 29 36  1  0
 29 37  1  0
  9  7  1  1
  7 13  1  0
 10  8  1  1
  8 14  1  0
 37 28  1  6
  4  5  1  0
 33 30  1  6
 30 38  1  0
 34 31  1  6
 31 39  1  0
 35 32  1  1
 32 40  1  0
 41 42  1  0
 41 43  1  0
 15 19  2  0
 16 22  2  0
 12 17  1  6
 17 19  1  0
 17 20  1  0
 18 19  1  0
 18 22  1  0
 18 23  1  0
  9 10  1  0
  9 11  1  0
 10 12  1  0
 11  5  1  6
 33 34  1  0
 33 35  1  0
 34 36  1  0
 35 37  1  0
 36 42  1  6
 20 21  2  0
 21 22  1  0
M  CHG  2   2  -1  26  -1
M  END
>  <COMPND>  (149) 
    8629 

>  <AUTHOR>  (149) 
    GENERATED BY OPEN BABEL 3.1.1

>  <MASTER>  (149) 
        0    0    0    0    0    0    0    0   58    0   58    0

>  <minimizedAffinity>  (149) 
-8.27167

>  <CNNscore>  (149) 
0.4065147340

>  <CNNaffinity>  (149) 
4.2060079575

>  <CNN_VS>  (149) 
1.7098041773

>  <CNNaffinity_variance>  (149) 
0.4159796238

$$$$
150
     RDKit          3D

 43 45  0  0  0  0  0  0  0  0999 V2000
   20.6204   75.1239   -5.0040 P   0  0  2  0  0  0  0  0  0  0  0  0
   19.6183   74.3784   -3.9757 O   0  0  0  0  0  0  0  0  0  0  0  0
   20.6378   76.6206   -4.8991 O   0  0  0  0  0  0  0  0  0  0  0  0
   20.2088   74.5257   -6.4499 O   0  0  0  0  0  0  0  0  0  0  0  0
   18.9487   73.8921   -6.5856 C   0  0  0  0  0  0  0  0  0  0  0  0
   19.2663   71.5817   -7.1642 O   0  0  0  0  0  0  0  0  0  0  0  0
   18.0209   72.2656   -9.8047 O   0  0  0  0  0  0  0  0  0  0  0  0
   15.9611   71.0835   -8.4643 O   0  0  0  0  0  0  0  0  0  0  0  0
   17.7139   72.7680   -8.5052 C   0  0  1  0  0  0  0  0  0  0  0  0
   16.9629   71.7262   -7.7026 C   0  0  2  0  0  0  0  0  0  0  0  0
   19.0189   72.8882   -7.7282 C   0  0  1  0  0  0  0  0  0  0  0  0
   18.0790   70.7820   -7.2892 C   0  0  2  0  0  0  0  0  0  0  0  0
   17.2029   72.1805  -10.3199 H   0  0  0  0  0  0  0  0  0  0  0  0
   15.2743   71.7255   -8.7027 H   0  0  0  0  0  0  0  0  0  0  0  0
   20.0762   69.9228   -5.4862 O   0  0  0  0  0  0  0  0  0  0  0  0
   16.9506   68.3261   -2.4992 O   0  0  0  0  0  0  0  0  0  0  0  0
   17.8153   70.1391   -6.0328 N   0  0  0  0  0  0  0  0  0  0  0  0
   18.5183   69.1286   -4.0003 N   0  0  0  0  0  0  0  0  0  0  0  0
   18.8899   69.7459   -5.2015 C   0  0  0  0  0  0  0  0  0  0  0  0
   16.5032   69.9049   -5.6361 C   0  0  0  0  0  0  0  0  0  0  0  0
   16.1656   69.3139   -4.4881 C   0  0  0  0  0  0  0  0  0  0  0  0
   17.2286   68.8725   -3.5622 C   0  0  0  0  0  0  0  0  0  0  0  0
   19.2502   68.8457   -3.4053 H   0  0  0  0  0  0  0  0  0  0  0  0
   22.0411   74.4122   -4.7073 O   0  0  0  0  0  0  0  0  0  0  0  0
   22.5110   72.8735   -4.8648 P   0  0  2  0  0  0  0  0  0  0  0  0
   24.0640   72.9118   -4.4130 O   0  0  0  0  0  0  0  0  0  0  0  0
   22.2774   72.2955   -6.2305 O   0  0  0  0  0  0  0  0  0  0  0  0
   21.7580   72.0922   -3.6700 O   0  0  0  0  0  0  0  0  0  0  0  0
   22.7597   72.3617   -1.5392 O   0  0  0  0  0  0  0  0  0  0  0  0
   20.2369   69.2054   -0.6879 O   0  0  0  0  0  0  0  0  0  0  0  0
   19.6347   71.8189    0.3393 O   0  0  0  0  0  0  0  0  0  0  0  0
   21.5900   69.3235   -3.2442 O   0  0  0  0  0  0  0  0  0  0  0  0
   20.6312   70.4224   -1.3273 C   0  0  1  0  0  0  0  0  0  0  0  0
   20.8875   71.4721   -0.2441 C   0  0  1  0  0  0  0  0  0  0  0  0
   21.8984   70.1703   -2.1422 C   0  0  2  0  0  0  0  0  0  0  0  0
   21.5675   72.7172   -0.8291 C   0  0  1  0  0  0  0  0  0  0  0  0
   22.5218   71.4771   -2.6359 C   0  0  1  0  0  0  0  0  0  0  0  0
   19.4325   69.3585   -0.1692 H   0  0  0  0  0  0  0  0  0  0  0  0
   19.2155   71.0238    0.7045 H   0  0  0  0  0  0  0  0  0  0  0  0
   21.1964   68.4996   -2.9185 H   0  0  0  0  0  0  0  0  0  0  0  0
   23.0207   74.5215   -0.2446 O   0  0  0  0  0  0  0  0  0  0  0  0
   21.9748   73.7101    0.2573 C   0  0  0  0  0  0  0  0  0  0  0  0
   23.2900   75.1586    0.4360 H   0  0  0  0  0  0  0  0  0  0  0  0
 25 28  1  0
 25 24  1  0
 25 26  1  1
 25 27  2  0
  1  4  1  0
  1 24  1  0
  1  2  1  1
  1  3  2  0
  6 11  1  0
  6 12  1  0
 29 36  1  0
 29 37  1  0
  9  7  1  6
  7 13  1  0
 10  8  1  6
  8 14  1  0
 37 28  1  6
  4  5  1  0
 33 30  1  1
 30 38  1  0
 34 31  1  6
 31 39  1  0
 35 32  1  6
 32 40  1  0
 41 42  1  0
 41 43  1  0
 15 19  2  0
 16 22  2  0
 12 17  1  1
 17 19  1  0
 17 20  1  0
 18 19  1  0
 18 22  1  0
 18 23  1  0
  9 10  1  0
  9 11  1  0
 10 12  1  0
 11  5  1  1
 33 34  1  0
 33 35  1  0
 34 36  1  0
 35 37  1  0
 36 42  1  1
 20 21  2  0
 21 22  1  0
M  CHG  2   2  -1  26  -1
M  END
>  <COMPND>  (150) 
    8629 

>  <AUTHOR>  (150) 
    GENERATED BY OPEN BABEL 3.1.1

>  <MASTER>  (150) 
        0    0    0    0    0    0    0    0   58    0   58    0

>  <minimizedAffinity>  (150) 
-8.00588

>  <CNNscore>  (150) 
0.4025538862

>  <CNNaffinity>  (150) 
4.1278133392

>  <CNN_VS>  (150) 
1.6616673470

>  <CNNaffinity_variance>  (150) 
0.6924644709

$$$$
151
     RDKit          3D

 43 45  0  0  0  0  0  0  0  0999 V2000
   20.9052   75.3918   -2.4730 P   0  0  2  0  0  0  0  0  0  0  0  0
   22.3524   74.9519   -1.8989 O   0  0  0  0  0  0  0  0  0  0  0  0
   20.9355   76.4935   -3.4912 O   0  0  0  0  0  0  0  0  0  0  0  0
   20.0335   75.6884   -1.1426 O   0  0  0  0  0  0  0  0  0  0  0  0
   20.6643   75.5661    0.1203 C   0  0  0  0  0  0  0  0  0  0  0  0
   19.8584   73.3103    0.3091 O   0  0  0  0  0  0  0  0  0  0  0  0
   19.4701   73.8917    3.2250 O   0  0  0  0  0  0  0  0  0  0  0  0
   21.8031   72.4798    3.2059 O   0  0  0  0  0  0  0  0  0  0  0  0
   20.4984   74.3418    2.3444 C   0  0  1  0  0  0  0  0  0  0  0  0
   21.4665   73.2156    2.0475 C   0  0  2  0  0  0  0  0  0  0  0  0
   19.8709   74.5902    0.9784 C   0  0  1  0  0  0  0  0  0  0  0  0
   20.6893   72.3904    1.0360 C   0  0  2  0  0  0  0  0  0  0  0  0
   19.8468   73.7266    4.1041 H   0  0  0  0  0  0  0  0  0  0  0  0
   22.2962   73.0480    3.8181 H   0  0  0  0  0  0  0  0  0  0  0  0
   19.8999   70.1879   -0.5463 O   0  0  0  0  0  0  0  0  0  0  0  0
   24.0706   69.8467   -2.4776 O   0  0  0  0  0  0  0  0  0  0  0  0
   21.5485   71.7070    0.1108 N   0  0  0  0  0  0  0  0  0  0  0  0
   21.9772   70.0199   -1.5068 N   0  0  0  0  0  0  0  0  0  0  0  0
   21.0542   70.6114   -0.6349 C   0  0  0  0  0  0  0  0  0  0  0  0
   22.8652   72.1244   -0.0502 C   0  0  0  0  0  0  0  0  0  0  0  0
   23.7330   71.5488   -0.8849 C   0  0  0  0  0  0  0  0  0  0  0  0
   23.2964   70.3976   -1.7011 C   0  0  0  0  0  0  0  0  0  0  0  0
   21.6553   69.2546   -2.0364 H   0  0  0  0  0  0  0  0  0  0  0  0
   20.2876   73.9973   -3.0087 O   0  0  0  0  0  0  0  0  0  0  0  0
   20.6201   73.1270   -4.3297 P   0  0  2  0  0  0  0  0  0  0  0  0
   21.9029   72.2487   -3.8821 O   0  0  0  0  0  0  0  0  0  0  0  0
   20.8328   73.9468   -5.5693 O   0  0  0  0  0  0  0  0  0  0  0  0
   19.4120   72.0615   -4.4316 O   0  0  0  0  0  0  0  0  0  0  0  0
   19.1113   69.7519   -3.9936 O   0  0  0  0  0  0  0  0  0  0  0  0
   17.3561   69.9496   -7.7260 O   0  0  0  0  0  0  0  0  0  0  0  0
   15.7063   69.6142   -5.3992 O   0  0  0  0  0  0  0  0  0  0  0  0
   19.7319   71.5048   -7.1635 O   0  0  0  0  0  0  0  0  0  0  0  0
   17.7082   70.4274   -6.4248 C   0  0  1  0  0  0  0  0  0  0  0  0
   17.1236   69.4674   -5.3869 C   0  0  1  0  0  0  0  0  0  0  0  0
   19.2303   70.4830   -6.3086 C   0  0  2  0  0  0  0  0  0  0  0  0
   17.6790   69.7602   -3.9866 C   0  0  1  0  0  0  0  0  0  0  0  0
   19.6780   70.7307   -4.8669 C   0  0  1  0  0  0  0  0  0  0  0  0
   16.3909   69.9124   -7.8066 H   0  0  0  0  0  0  0  0  0  0  0  0
   15.3684   69.4271   -6.2892 H   0  0  0  0  0  0  0  0  0  0  0  0
   19.4419   71.3364   -8.0731 H   0  0  0  0  0  0  0  0  0  0  0  0
   16.7573   67.5800   -3.6611 O   0  0  0  0  0  0  0  0  0  0  0  0
   17.2319   68.7174   -2.9645 C   0  0  0  0  0  0  0  0  0  0  0  0
   16.4695   66.9077   -3.0232 H   0  0  0  0  0  0  0  0  0  0  0  0
 25 28  1  0
 25 24  1  0
 25 26  1  1
 25 27  2  0
  1  4  1  0
  1 24  1  0
  1  2  1  1
  1  3  2  0
  6 11  1  0
  6 12  1  0
 29 36  1  0
 29 37  1  0
  9  7  1  1
  7 13  1  0
 10  8  1  1
  8 14  1  0
 37 28  1  1
  4  5  1  0
 33 30  1  6
 30 38  1  0
 34 31  1  1
 31 39  1  0
 35 32  1  6
 32 40  1  0
 41 42  1  0
 41 43  1  0
 15 19  2  0
 16 22  2  0
 12 17  1  6
 17 19  1  0
 17 20  1  0
 18 19  1  0
 18 22  1  0
 18 23  1  0
  9 10  1  0
  9 11  1  0
 10 12  1  0
 11  5  1  6
 33 34  1  0
 33 35  1  0
 34 36  1  0
 35 37  1  0
 36 42  1  1
 20 21  2  0
 21 22  1  0
M  CHG  2   2  -1  26  -1
M  END
>  <COMPND>  (151) 
    8629 

>  <AUTHOR>  (151) 
    GENERATED BY OPEN BABEL 3.1.1

>  <MASTER>  (151) 
        0    0    0    0    0    0    0    0   58    0   58    0

>  <minimizedAffinity>  (151) 
-7.67729

>  <CNNscore>  (151) 
0.4003413022

>  <CNNaffinity>  (151) 
3.9491353035

>  <CNN_VS>  (151) 
1.5810019970

>  <CNNaffinity_variance>  (151) 
1.0113632679

$$$$
152
     RDKit          3D

 43 45  0  0  0  0  0  0  0  0999 V2000
   19.2656   70.4391   -2.1284 P   0  0  2  0  0  0  0  0  0  0  0  0
   19.0801   71.8294   -1.3222 O   0  0  0  0  0  0  0  0  0  0  0  0
   19.4466   69.2252   -1.2652 O   0  0  0  0  0  0  0  0  0  0  0  0
   20.4678   70.7491   -3.1660 O   0  0  0  0  0  0  0  0  0  0  0  0
   20.9812   72.0682   -3.2312 C   0  0  0  0  0  0  0  0  0  0  0  0
   22.8334   73.0330   -2.0429 O   0  0  0  0  0  0  0  0  0  0  0  0
   24.3550   70.5570   -2.7811 O   0  0  0  0  0  0  0  0  0  0  0  0
   23.6494   70.0713   -0.1921 O   0  0  0  0  0  0  0  0  0  0  0  0
   22.9768   70.7015   -2.4419 C   0  0  1  0  0  0  0  0  0  0  0  0
   22.8228   70.9288   -0.9526 C   0  0  2  0  0  0  0  0  0  0  0  0
   22.4881   72.0247   -3.0178 C   0  0  1  0  0  0  0  0  0  0  0  0
   23.2131   72.3906   -0.8149 C   0  0  2  0  0  0  0  0  0  0  0  0
   24.6895   69.7187   -2.4242 H   0  0  0  0  0  0  0  0  0  0  0  0
   23.3611   69.1532   -0.3130 H   0  0  0  0  0  0  0  0  0  0  0  0
   23.6896   75.0519    0.0027 O   0  0  0  0  0  0  0  0  0  0  0  0
   20.5747   74.7634    3.3872 O   0  0  0  0  0  0  0  0  0  0  0  0
   22.5405   73.0366    0.2767 N   0  0  0  0  0  0  0  0  0  0  0  0
   22.1381   74.9061    1.6872 N   0  0  0  0  0  0  0  0  0  0  0  0
   22.8540   74.3758    0.6063 C   0  0  0  0  0  0  0  0  0  0  0  0
   21.5816   72.3434    1.0075 C   0  0  0  0  0  0  0  0  0  0  0  0
   20.9088   72.8631    2.0363 C   0  0  0  0  0  0  0  0  0  0  0  0
   21.1767   74.2570    2.4454 C   0  0  0  0  0  0  0  0  0  0  0  0
   22.3401   75.8375    1.9351 H   0  0  0  0  0  0  0  0  0  0  0  0
   17.9626   70.3966   -3.0842 O   0  0  0  0  0  0  0  0  0  0  0  0
   17.5334   69.3605   -4.2483 P   0  0  2  0  0  0  0  0  0  0  0  0
   15.9763   69.7162   -4.5060 O   0  0  0  0  0  0  0  0  0  0  0  0
   17.7927   67.9196   -3.9160 O   0  0  0  0  0  0  0  0  0  0  0  0
   18.2963   69.8902   -5.5683 O   0  0  0  0  0  0  0  0  0  0  0  0
   19.1850   72.0333   -6.0522 O   0  0  0  0  0  0  0  0  0  0  0  0
   17.8411   71.0102   -9.8202 O   0  0  0  0  0  0  0  0  0  0  0  0
   20.6613   71.0316   -9.2780 O   0  0  0  0  0  0  0  0  0  0  0  0
   16.2875   70.2867   -7.4873 O   0  0  0  0  0  0  0  0  0  0  0  0
   18.4052   70.7695   -8.5282 C   0  0  1  0  0  0  0  0  0  0  0  0
   19.6874   71.5948   -8.4035 C   0  0  1  0  0  0  0  0  0  0  0  0
   17.3953   71.1802   -7.4582 C   0  0  2  0  0  0  0  0  0  0  0  0
   20.2052   71.5990   -6.9589 C   0  0  1  0  0  0  0  0  0  0  0  0
   18.0252   71.1986   -6.0644 C   0  0  1  0  0  0  0  0  0  0  0  0
   18.4771   70.7510  -10.5042 H   0  0  0  0  0  0  0  0  0  0  0  0
   20.3217   71.0345  -10.1868 H   0  0  0  0  0  0  0  0  0  0  0  0
   15.8973   70.2844   -8.3748 H   0  0  0  0  0  0  0  0  0  0  0  0
   22.4712   72.0608   -7.5597 O   0  0  0  0  0  0  0  0  0  0  0  0
   21.3925   72.5426   -6.7796 C   0  0  0  0  0  0  0  0  0  0  0  0
   23.2339   72.6518   -7.4557 H   0  0  0  0  0  0  0  0  0  0  0  0
 25 28  1  0
 25 24  1  0
 25 26  1  6
 25 27  2  0
  1  4  1  0
  1 24  1  0
  1  2  1  1
  1  3  2  0
  6 11  1  0
  6 12  1  0
 29 36  1  0
 29 37  1  0
  9  7  1  1
  7 13  1  0
 10  8  1  1
  8 14  1  0
 37 28  1  6
  4  5  1  0
 33 30  1  6
 30 38  1  0
 34 31  1  6
 31 39  1  0
 35 32  1  1
 32 40  1  0
 41 42  1  0
 41 43  1  0
 15 19  2  0
 16 22  2  0
 12 17  1  1
 17 19  1  0
 17 20  1  0
 18 19  1  0
 18 22  1  0
 18 23  1  0
  9 10  1  0
  9 11  1  0
 10 12  1  0
 11  5  1  1
 33 34  1  0
 33 35  1  0
 34 36  1  0
 35 37  1  0
 36 42  1  6
 20 21  2  0
 21 22  1  0
M  CHG  2   2  -1  26  -1
M  END
>  <COMPND>  (152) 
    8629 

>  <AUTHOR>  (152) 
    GENERATED BY OPEN BABEL 3.1.1

>  <MASTER>  (152) 
        0    0    0    0    0    0    0    0   58    0   58    0

>  <minimizedAffinity>  (152) 
-8.45048

>  <CNNscore>  (152) 
0.3974877596

>  <CNNaffinity>  (152) 
4.1425580978

>  <CNN_VS>  (152) 
1.6466161013

>  <CNNaffinity_variance>  (152) 
0.2702181339

$$$$
153
     RDKit          3D

 43 45  0  0  0  0  0  0  0  0999 V2000
   20.0499   70.6268   -1.4324 P   0  0  2  0  0  0  0  0  0  0  0  0
   20.2144   69.2258   -0.6401 O   0  0  0  0  0  0  0  0  0  0  0  0
   21.2769   71.0906   -2.1610 O   0  0  0  0  0  0  0  0  0  0  0  0
   19.4725   71.6412   -0.3120 O   0  0  0  0  0  0  0  0  0  0  0  0
   20.1878   72.8356   -0.0484 C   0  0  0  0  0  0  0  0  0  0  0  0
   22.5134   73.1390    0.4747 O   0  0  0  0  0  0  0  0  0  0  0  0
   21.7818   72.4147    3.2909 O   0  0  0  0  0  0  0  0  0  0  0  0
   21.9613   75.1335    3.4038 O   0  0  0  0  0  0  0  0  0  0  0  0
   21.0369   73.1587    2.3281 C   0  0  1  0  0  0  0  0  0  0  0  0
   21.6258   74.5443    2.1640 C   0  0  2  0  0  0  0  0  0  0  0  0
   21.2909   72.5409    0.9588 C   0  0  1  0  0  0  0  0  0  0  0  0
   22.8440   74.2685    1.2991 C   0  0  2  0  0  0  0  0  0  0  0  0
   21.6351   72.7905    4.1736 H   0  0  0  0  0  0  0  0  0  0  0  0
   21.1532   75.2892    3.9171 H   0  0  0  0  0  0  0  0  0  0  0  0
   24.3317   76.5182    2.1378 O   0  0  0  0  0  0  0  0  0  0  0  0
   24.0682   78.4740   -2.0272 O   0  0  0  0  0  0  0  0  0  0  0  0
   23.1791   75.3801    0.4545 N   0  0  0  0  0  0  0  0  0  0  0  0
   24.1995   77.4901    0.0632 N   0  0  0  0  0  0  0  0  0  0  0  0
   23.9295   76.4606    0.9739 C   0  0  0  0  0  0  0  0  0  0  0  0
   22.7649   75.3914   -0.8730 C   0  0  0  0  0  0  0  0  0  0  0  0
   23.0295   76.3813   -1.7281 C   0  0  0  0  0  0  0  0  0  0  0  0
   23.8087   77.5478   -1.2652 C   0  0  0  0  0  0  0  0  0  0  0  0
   24.7206   78.2536    0.4029 H   0  0  0  0  0  0  0  0  0  0  0  0
   18.7661   70.3609   -2.3780 O   0  0  0  0  0  0  0  0  0  0  0  0
   18.5500   69.3395   -3.6121 P   0  0  2  0  0  0  0  0  0  0  0  0
   17.1964   68.5506   -3.2080 O   0  0  0  0  0  0  0  0  0  0  0  0
   19.7270   68.4490   -3.8872 O   0  0  0  0  0  0  0  0  0  0  0  0
   18.1192   70.2804   -4.8506 O   0  0  0  0  0  0  0  0  0  0  0  0
   19.1750   70.5002   -6.9609 O   0  0  0  0  0  0  0  0  0  0  0  0
   17.8090   74.3696   -6.5005 O   0  0  0  0  0  0  0  0  0  0  0  0
   16.5372   72.6339   -8.4026 O   0  0  0  0  0  0  0  0  0  0  0  0
   18.8340   72.9186   -4.2150 O   0  0  0  0  0  0  0  0  0  0  0  0
   17.7594   72.9463   -6.3704 C   0  0  1  0  0  0  0  0  0  0  0  0
   17.7802   72.3355   -7.7731 C   0  0  1  0  0  0  0  0  0  0  0  0
   18.9671   72.4766   -5.5616 C   0  0  2  0  0  0  0  0  0  0  0  0
   17.9981   70.8176   -7.7132 C   0  0  1  0  0  0  0  0  0  0  0  0
   19.1207   70.9553   -5.6075 C   0  0  1  0  0  0  0  0  0  0  0  0
   17.0446   74.6744   -7.0127 H   0  0  0  0  0  0  0  0  0  0  0  0
   16.4117   73.5954   -8.4335 H   0  0  0  0  0  0  0  0  0  0  0  0
   18.7378   73.8832   -4.1994 H   0  0  0  0  0  0  0  0  0  0  0  0
   18.3126   71.2639  -10.0393 O   0  0  0  0  0  0  0  0  0  0  0  0
   18.1796   70.2106   -9.1027 C   0  0  0  0  0  0  0  0  0  0  0  0
   18.4292   70.8925  -10.9282 H   0  0  0  0  0  0  0  0  0  0  0  0
 25 28  1  0
 25 24  1  0
 25 26  1  1
 25 27  2  0
  1  4  1  0
  1 24  1  0
  1  2  1  1
  1  3  2  0
  6 11  1  0
  6 12  1  0
 29 36  1  0
 29 37  1  0
  9  7  1  1
  7 13  1  0
 10  8  1  1
  8 14  1  0
 37 28  1  6
  4  5  1  0
 33 30  1  6
 30 38  1  0
 34 31  1  1
 31 39  1  0
 35 32  1  1
 32 40  1  0
 41 42  1  0
 41 43  1  0
 15 19  2  0
 16 22  2  0
 12 17  1  6
 17 19  1  0
 17 20  1  0
 18 19  1  0
 18 22  1  0
 18 23  1  0
  9 10  1  0
  9 11  1  0
 10 12  1  0
 11  5  1  6
 33 34  1  0
 33 35  1  0
 34 36  1  0
 35 37  1  0
 36 42  1  6
 20 21  2  0
 21 22  1  0
M  CHG  2   2  -1  26  -1
M  END
>  <COMPND>  (153) 
    8629 

>  <AUTHOR>  (153) 
    GENERATED BY OPEN BABEL 3.1.1

>  <MASTER>  (153) 
        0    0    0    0    0    0    0    0   58    0   58    0

>  <minimizedAffinity>  (153) 
-7.21546

>  <CNNscore>  (153) 
0.3895316720

>  <CNNaffinity>  (153) 
4.0337038040

>  <CNN_VS>  (153) 
1.5712554455

>  <CNNaffinity_variance>  (153) 
0.0515917838

$$$$
154
     RDKit          3D

 43 45  0  0  0  0  0  0  0  0999 V2000
   22.8571   74.2042   -5.2992 P   0  0  2  0  0  0  0  0  0  0  0  0
   23.5491   75.1205   -6.4389 O   0  0  0  0  0  0  0  0  0  0  0  0
   23.7646   73.1945   -4.6603 O   0  0  0  0  0  0  0  0  0  0  0  0
   21.5422   73.6055   -6.0276 O   0  0  0  0  0  0  0  0  0  0  0  0
   21.3281   72.2052   -5.9921 C   0  0  0  0  0  0  0  0  0  0  0  0
   19.9513   70.5213   -7.0131 O   0  0  0  0  0  0  0  0  0  0  0  0
   19.2986   72.5812   -9.0919 O   0  0  0  0  0  0  0  0  0  0  0  0
   17.0947   72.6374   -7.4868 O   0  0  0  0  0  0  0  0  0  0  0  0
   19.5147   72.7494   -7.6917 C   0  0  1  0  0  0  0  0  0  0  0  0
   18.3219   72.2391   -6.9105 C   0  0  2  0  0  0  0  0  0  0  0  0
   20.6113   71.7808   -7.2666 C   0  0  1  0  0  0  0  0  0  0  0  0
   18.5313   70.7353   -6.9622 C   0  0  2  0  0  0  0  0  0  0  0  0
   18.6024   73.1898   -9.3868 H   0  0  0  0  0  0  0  0  0  0  0  0
   17.0083   73.6018   -7.4296 H   0  0  0  0  0  0  0  0  0  0  0  0
   15.8538   69.8724   -6.7077 O   0  0  0  0  0  0  0  0  0  0  0  0
   16.6055   68.1888   -2.4838 O   0  0  0  0  0  0  0  0  0  0  0  0
   18.0003   70.0684   -5.8069 N   0  0  0  0  0  0  0  0  0  0  0  0
   16.2303   69.0346   -4.6048 N   0  0  0  0  0  0  0  0  0  0  0  0
   16.6413   69.6773   -5.7796 C   0  0  0  0  0  0  0  0  0  0  0  0
   18.8242   69.8082   -4.7172 C   0  0  0  0  0  0  0  0  0  0  0  0
   18.4165   69.1956   -3.6038 C   0  0  0  0  0  0  0  0  0  0  0  0
   17.0109   68.7546   -3.4944 C   0  0  0  0  0  0  0  0  0  0  0  0
   15.2875   68.7534   -4.5630 H   0  0  0  0  0  0  0  0  0  0  0  0
   22.2416   75.2964   -4.2789 O   0  0  0  0  0  0  0  0  0  0  0  0
   21.1591   75.1449   -3.0880 P   0  0  2  0  0  0  0  0  0  0  0  0
   19.9118   74.4111   -3.8114 O   0  0  0  0  0  0  0  0  0  0  0  0
   20.8079   76.4363   -2.4076 O   0  0  0  0  0  0  0  0  0  0  0  0
   21.7817   74.0216   -2.1104 O   0  0  0  0  0  0  0  0  0  0  0  0
   22.2584   71.7015   -2.0302 O   0  0  0  0  0  0  0  0  0  0  0  0
   19.8492   71.9959    1.3104 O   0  0  0  0  0  0  0  0  0  0  0  0
   22.6757   71.6008    1.6310 O   0  0  0  0  0  0  0  0  0  0  0  0
   19.2252   73.5356   -1.0601 O   0  0  0  0  0  0  0  0  0  0  0  0
   20.8272   72.4399    0.3661 C   0  0  1  0  0  0  0  0  0  0  0  0
   21.9965   71.4535    0.3871 C   0  0  1  0  0  0  0  0  0  0  0  0
   20.1928   72.4922   -1.0225 C   0  0  2  0  0  0  0  0  0  0  0  0
   22.9586   71.7099   -0.7807 C   0  0  1  0  0  0  0  0  0  0  0  0
   21.2422   72.7025   -2.1154 C   0  0  1  0  0  0  0  0  0  0  0  0
   20.2455   71.9610    2.1943 H   0  0  0  0  0  0  0  0  0  0  0  0
   22.0570   71.4368    2.3600 H   0  0  0  0  0  0  0  0  0  0  0  0
   18.5664   73.3909   -0.3638 H   0  0  0  0  0  0  0  0  0  0  0  0
   23.8942   69.7523    0.2202 O   0  0  0  0  0  0  0  0  0  0  0  0
   24.0457   70.6411   -0.8714 C   0  0  0  0  0  0  0  0  0  0  0  0
   24.5792   69.0664    0.1753 H   0  0  0  0  0  0  0  0  0  0  0  0
 25 28  1  0
 25 24  1  0
 25 26  1  6
 25 27  2  0
  1  4  1  0
  1 24  1  0
  1  2  1  6
  1  3  2  0
  6 11  1  0
  6 12  1  0
 29 36  1  0
 29 37  1  0
  9  7  1  6
  7 13  1  0
 10  8  1  6
  8 14  1  0
 37 28  1  1
  4  5  1  0
 33 30  1  1
 30 38  1  0
 34 31  1  1
 31 39  1  0
 35 32  1  1
 32 40  1  0
 41 42  1  0
 41 43  1  0
 15 19  2  0
 16 22  2  0
 12 17  1  1
 17 19  1  0
 17 20  1  0
 18 19  1  0
 18 22  1  0
 18 23  1  0
  9 10  1  0
  9 11  1  0
 10 12  1  0
 11  5  1  1
 33 34  1  0
 33 35  1  0
 34 36  1  0
 35 37  1  0
 36 42  1  6
 20 21  2  0
 21 22  1  0
M  CHG  2   2  -1  26  -1
M  END
>  <COMPND>  (154) 
    8629 

>  <AUTHOR>  (154) 
    GENERATED BY OPEN BABEL 3.1.1

>  <MASTER>  (154) 
        0    0    0    0    0    0    0    0   58    0   58    0

>  <minimizedAffinity>  (154) 
-7.23333

>  <CNNscore>  (154) 
0.3854013681

>  <CNNaffinity>  (154) 
4.1222653389

>  <CNN_VS>  (154) 
1.5887267590

>  <CNNaffinity_variance>  (154) 
0.6402956247

$$$$
155
     RDKit          3D

 43 45  0  0  0  0  0  0  0  0999 V2000
   18.6225   72.3342   -1.9477 P   0  0  2  0  0  0  0  0  0  0  0  0
   19.0880   73.8828   -1.8990 O   0  0  0  0  0  0  0  0  0  0  0  0
   17.1646   72.1192   -2.2302 O   0  0  0  0  0  0  0  0  0  0  0  0
   19.1656   71.7212   -0.5523 O   0  0  0  0  0  0  0  0  0  0  0  0
   19.2530   72.5771    0.5736 C   0  0  0  0  0  0  0  0  0  0  0  0
   21.4358   71.5766    0.4825 O   0  0  0  0  0  0  0  0  0  0  0  0
   21.9926   73.0046    3.0596 O   0  0  0  0  0  0  0  0  0  0  0  0
   23.2379   74.5881    1.2216 O   0  0  0  0  0  0  0  0  0  0  0  0
   21.2217   73.4339    1.9386 C   0  0  1  0  0  0  0  0  0  0  0  0
   22.1318   73.8208    0.7917 C   0  0  2  0  0  0  0  0  0  0  0  0
   20.4975   72.2182    1.3739 C   0  0  1  0  0  0  0  0  0  0  0  0
   22.5395   72.4646    0.2417 C   0  0  2  0  0  0  0  0  0  0  0  0
   22.4641   73.7641    3.4376 H   0  0  0  0  0  0  0  0  0  0  0  0
   22.9268   75.4411    1.5627 H   0  0  0  0  0  0  0  0  0  0  0  0
   23.9349   70.4574   -1.1733 O   0  0  0  0  0  0  0  0  0  0  0  0
   23.5107   72.7205   -5.1658 O   0  0  0  0  0  0  0  0  0  0  0  0
   22.8076   72.5035   -1.1683 N   0  0  0  0  0  0  0  0  0  0  0  0
   23.7224   71.5858   -3.1602 N   0  0  0  0  0  0  0  0  0  0  0  0
   23.5174   71.4450   -1.7817 C   0  0  0  0  0  0  0  0  0  0  0  0
   22.3681   73.5824   -1.9278 C   0  0  0  0  0  0  0  0  0  0  0  0
   22.5729   73.7022   -3.2411 C   0  0  0  0  0  0  0  0  0  0  0  0
   23.3063   72.6395   -3.9585 C   0  0  0  0  0  0  0  0  0  0  0  0
   24.2149   70.8607   -3.6088 H   0  0  0  0  0  0  0  0  0  0  0  0
   19.6221   71.6885   -3.0417 O   0  0  0  0  0  0  0  0  0  0  0  0
   19.8914   70.1493   -3.4556 P   0  0  2  0  0  0  0  0  0  0  0  0
   18.6424   69.3629   -2.7931 O   0  0  0  0  0  0  0  0  0  0  0  0
   21.2387   69.6286   -3.0460 O   0  0  0  0  0  0  0  0  0  0  0  0
   19.6091   70.0980   -5.0439 O   0  0  0  0  0  0  0  0  0  0  0  0
   19.8427   71.4974   -6.9423 O   0  0  0  0  0  0  0  0  0  0  0  0
   15.8813   70.4244   -7.3970 O   0  0  0  0  0  0  0  0  0  0  0  0
   17.8594   69.3287   -9.1676 O   0  0  0  0  0  0  0  0  0  0  0  0
   16.9455   70.9320   -4.7532 O   0  0  0  0  0  0  0  0  0  0  0  0
   17.2512   70.2281   -7.0363 C   0  0  1  0  0  0  0  0  0  0  0  0
   18.1093   70.4217   -8.2881 C   0  0  1  0  0  0  0  0  0  0  0  0
   17.6343   71.2420   -5.9599 C   0  0  2  0  0  0  0  0  0  0  0  0
   19.6005   70.4911   -7.9324 C   0  0  1  0  0  0  0  0  0  0  0  0
   19.1445   71.2650   -5.7174 C   0  0  1  0  0  0  0  0  0  0  0  0
   15.6316   69.7834   -8.0798 H   0  0  0  0  0  0  0  0  0  0  0  0
   16.9142   69.2959   -9.3840 H   0  0  0  0  0  0  0  0  0  0  0  0
   15.9905   70.9208   -4.9199 H   0  0  0  0  0  0  0  0  0  0  0  0
   21.7390   71.2446   -8.6858 O   0  0  0  0  0  0  0  0  0  0  0  0
   20.4618   70.8408   -9.1439 C   0  0  0  0  0  0  0  0  0  0  0  0
   22.2983   71.4700   -9.4462 H   0  0  0  0  0  0  0  0  0  0  0  0
 25 28  1  0
 25 24  1  0
 25 26  1  1
 25 27  2  0
  1  4  1  0
  1 24  1  0
  1  2  1  1
  1  3  2  0
  6 11  1  0
  6 12  1  0
 29 36  1  0
 29 37  1  0
  9  7  1  1
  7 13  1  0
 10  8  1  1
  8 14  1  0
 37 28  1  6
  4  5  1  0
 33 30  1  6
 30 38  1  0
 34 31  1  6
 31 39  1  0
 35 32  1  1
 32 40  1  0
 41 42  1  0
 41 43  1  0
 15 19  2  0
 16 22  2  0
 12 17  1  6
 17 19  1  0
 17 20  1  0
 18 19  1  0
 18 22  1  0
 18 23  1  0
  9 10  1  0
  9 11  1  0
 10 12  1  0
 11  5  1  6
 33 34  1  0
 33 35  1  0
 34 36  1  0
 35 37  1  0
 36 42  1  6
 20 21  2  0
 21 22  1  0
M  CHG  2   2  -1  26  -1
M  END
>  <COMPND>  (155) 
    8629 

>  <AUTHOR>  (155) 
    GENERATED BY OPEN BABEL 3.1.1

>  <MASTER>  (155) 
        0    0    0    0    0    0    0    0   58    0   58    0

>  <minimizedAffinity>  (155) 
-7.94682

>  <CNNscore>  (155) 
0.3669380546

>  <CNNaffinity>  (155) 
3.8372886181

>  <CNN_VS>  (155) 
1.4080471992

>  <CNNaffinity_variance>  (155) 
0.8609339595

$$$$
156
     RDKit          3D

 43 45  0  0  0  0  0  0  0  0999 V2000
   19.2343   74.1296   -3.5723 P   0  0  2  0  0  0  0  0  0  0  0  0
   18.7949   75.6559   -3.8802 O   0  0  0  0  0  0  0  0  0  0  0  0
   18.1646   73.1032   -3.8039 O   0  0  0  0  0  0  0  0  0  0  0  0
   19.8335   74.1934   -2.0707 O   0  0  0  0  0  0  0  0  0  0  0  0
   19.1201   74.9243   -1.0885 C   0  0  0  0  0  0  0  0  0  0  0  0
   18.9898   72.6215   -0.4147 O   0  0  0  0  0  0  0  0  0  0  0  0
   18.1736   73.6510    2.2807 O   0  0  0  0  0  0  0  0  0  0  0  0
   20.8067   73.0446    2.6485 O   0  0  0  0  0  0  0  0  0  0  0  0
   19.1058   74.1989    1.3501 C   0  0  1  0  0  0  0  0  0  0  0  0
   20.3829   73.3849    1.3441 C   0  0  2  0  0  0  0  0  0  0  0  0
   18.5663   73.9544   -0.0537 C   0  0  1  0  0  0  0  0  0  0  0  0
   19.9788   72.1707    0.5253 C   0  0  2  0  0  0  0  0  0  0  0  0
   18.4964   73.7952    3.1845 H   0  0  0  0  0  0  0  0  0  0  0  0
   21.0529   73.8503    3.1291 H   0  0  0  0  0  0  0  0  0  0  0  0
   19.9548   69.6177   -0.6830 O   0  0  0  0  0  0  0  0  0  0  0  0
   24.2749   70.1001   -2.2145 O   0  0  0  0  0  0  0  0  0  0  0  0
   21.0835   71.6041   -0.1960 N   0  0  0  0  0  0  0  0  0  0  0  0
   22.1058   69.8600   -1.4447 N   0  0  0  0  0  0  0  0  0  0  0  0
   20.9690   70.3138   -0.7637 C   0  0  0  0  0  0  0  0  0  0  0  0
   22.2639   72.3262   -0.3348 C   0  0  0  0  0  0  0  0  0  0  0  0
   23.3393   71.8788   -0.9862 C   0  0  0  0  0  0  0  0  0  0  0  0
   23.3024   70.5397   -1.6088 C   0  0  0  0  0  0  0  0  0  0  0  0
   22.0493   68.9635   -1.8482 H   0  0  0  0  0  0  0  0  0  0  0  0
   20.5562   73.9410   -4.4833 O   0  0  0  0  0  0  0  0  0  0  0  0
   21.1731   72.6302   -5.2003 P   0  0  2  0  0  0  0  0  0  0  0  0
   21.0803   71.4986   -4.0479 O   0  0  0  0  0  0  0  0  0  0  0  0
   22.5502   72.8282   -5.7645 O   0  0  0  0  0  0  0  0  0  0  0  0
   20.0610   72.1975   -6.2870 O   0  0  0  0  0  0  0  0  0  0  0  0
   18.8770   70.1710   -5.9584 O   0  0  0  0  0  0  0  0  0  0  0  0
   18.1965   70.6849   -9.9986 O   0  0  0  0  0  0  0  0  0  0  0  0
   16.0534   71.1094   -8.1345 O   0  0  0  0  0  0  0  0  0  0  0  0
   20.7741   71.3653   -8.8704 O   0  0  0  0  0  0  0  0  0  0  0  0
   18.3899   71.1069   -8.6459 C   0  0  1  0  0  0  0  0  0  0  0  0
   17.2865   70.4856   -7.7873 C   0  0  1  0  0  0  0  0  0  0  0  0
   19.7659   70.6441   -8.1705 C   0  0  2  0  0  0  0  0  0  0  0  0
   17.5771   70.6717   -6.2920 C   0  0  1  0  0  0  0  0  0  0  0  0
   19.9334   70.8282   -6.6612 C   0  0  1  0  0  0  0  0  0  0  0  0
   17.3249   70.9760  -10.3067 H   0  0  0  0  0  0  0  0  0  0  0  0
   15.8820   70.9849   -9.0813 H   0  0  0  0  0  0  0  0  0  0  0  0
   20.6573   71.2405   -9.8247 H   0  0  0  0  0  0  0  0  0  0  0  0
   16.7096   70.3831   -4.0845 O   0  0  0  0  0  0  0  0  0  0  0  0
   16.5731   69.9245   -5.4169 C   0  0  0  0  0  0  0  0  0  0  0  0
   16.0765   69.9164   -3.5161 H   0  0  0  0  0  0  0  0  0  0  0  0
 25 28  1  0
 25 24  1  0
 25 26  1  1
 25 27  2  0
  1  4  1  0
  1 24  1  0
  1  2  1  6
  1  3  2  0
  6 11  1  0
  6 12  1  0
 29 36  1  0
 29 37  1  0
  9  7  1  1
  7 13  1  0
 10  8  1  1
  8 14  1  0
 37 28  1  6
  4  5  1  0
 33 30  1  6
 30 38  1  0
 34 31  1  6
 31 39  1  0
 35 32  1  6
 32 40  1  0
 41 42  1  0
 41 43  1  0
 15 19  2  0
 16 22  2  0
 12 17  1  6
 17 19  1  0
 17 20  1  0
 18 19  1  0
 18 22  1  0
 18 23  1  0
  9 10  1  0
  9 11  1  0
 10 12  1  0
 11  5  1  6
 33 34  1  0
 33 35  1  0
 34 36  1  0
 35 37  1  0
 36 42  1  1
 20 21  2  0
 21 22  1  0
M  CHG  2   2  -1  26  -1
M  END
>  <COMPND>  (156) 
    8629 

>  <AUTHOR>  (156) 
    GENERATED BY OPEN BABEL 3.1.1

>  <MASTER>  (156) 
        0    0    0    0    0    0    0    0   58    0   58    0

>  <minimizedAffinity>  (156) 
-7.92513

>  <CNNscore>  (156) 
0.3643502891

>  <CNNaffinity>  (156) 
3.9807496071

>  <CNN_VS>  (156) 
1.4503872395

>  <CNNaffinity_variance>  (156) 
0.7188249826

$$$$
157
     RDKit          3D

 43 45  0  0  0  0  0  0  0  0999 V2000
   22.7484   73.3208   -4.0296 P   0  0  2  0  0  0  0  0  0  0  0  0
   21.4557   73.6803   -4.9335 O   0  0  0  0  0  0  0  0  0  0  0  0
   23.9999   73.0248   -4.8027 O   0  0  0  0  0  0  0  0  0  0  0  0
   22.2260   72.1370   -3.0582 O   0  0  0  0  0  0  0  0  0  0  0  0
   21.5858   71.0160   -3.6425 C   0  0  0  0  0  0  0  0  0  0  0  0
   19.2542   71.3961   -4.0817 O   0  0  0  0  0  0  0  0  0  0  0  0
   18.7118   69.5020   -1.8215 O   0  0  0  0  0  0  0  0  0  0  0  0
   18.3122   67.9362   -4.0181 O   0  0  0  0  0  0  0  0  0  0  0  0
   19.7522   69.4681   -2.7970 C   0  0  1  0  0  0  0  0  0  0  0  0
   19.2020   69.0274   -4.1375 C   0  0  2  0  0  0  0  0  0  0  0  0
   20.1743   70.9039   -3.0829 C   0  0  1  0  0  0  0  0  0  0  0  0
   18.5151   70.2910   -4.6269 C   0  0  2  0  0  0  0  0  0  0  0  0
   18.4259   68.5961   -1.6223 H   0  0  0  0  0  0  0  0  0  0  0  0
   18.7965   67.1568   -3.7038 H   0  0  0  0  0  0  0  0  0  0  0  0
   16.2610   69.8016   -6.2570 O   0  0  0  0  0  0  0  0  0  0  0  0
   18.6209   70.7121  -10.1097 O   0  0  0  0  0  0  0  0  0  0  0  0
   18.5122   70.3932   -6.0590 N   0  0  0  0  0  0  0  0  0  0  0  0
   17.4378   70.2555   -8.1740 N   0  0  0  0  0  0  0  0  0  0  0  0
   17.3274   70.1254   -6.7837 C   0  0  0  0  0  0  0  0  0  0  0  0
   19.6749   70.7558   -6.7303 C   0  0  0  0  0  0  0  0  0  0  0  0
   19.7639   70.8741   -8.0567 C   0  0  0  0  0  0  0  0  0  0  0  0
   18.5712   70.6118   -8.8877 C   0  0  0  0  0  0  0  0  0  0  0  0
   16.6252   70.0735   -8.6996 H   0  0  0  0  0  0  0  0  0  0  0  0
   22.8579   74.5879   -3.0318 O   0  0  0  0  0  0  0  0  0  0  0  0
   21.7375   75.3344   -2.1371 P   0  0  2  0  0  0  0  0  0  0  0  0
   20.4508   74.3623   -2.2669 O   0  0  0  0  0  0  0  0  0  0  0  0
   21.4804   76.7587   -2.5358 O   0  0  0  0  0  0  0  0  0  0  0  0
   22.2386   75.1461   -0.6144 O   0  0  0  0  0  0  0  0  0  0  0  0
   20.2975   75.3738    0.7260 O   0  0  0  0  0  0  0  0  0  0  0  0
   23.0866   74.7446    3.7053 O   0  0  0  0  0  0  0  0  0  0  0  0
   21.2138   72.6669    3.0545 O   0  0  0  0  0  0  0  0  0  0  0  0
   23.7747   76.3540    1.3996 O   0  0  0  0  0  0  0  0  0  0  0  0
   22.5024   74.5763    2.4108 C   0  0  1  0  0  0  0  0  0  0  0  0
   21.0931   74.0087    2.5908 C   0  0  1  0  0  0  0  0  0  0  0  0
   22.4506   75.9308    1.7065 C   0  0  2  0  0  0  0  0  0  0  0  0
   20.3068   74.0502    1.2736 C   0  0  1  0  0  0  0  0  0  0  0  0
   21.6039   75.8737    0.4338 C   0  0  1  0  0  0  0  0  0  0  0  0
   23.1229   73.8881    4.1576 H   0  0  0  0  0  0  0  0  0  0  0  0
   21.7127   72.6546    3.8865 H   0  0  0  0  0  0  0  0  0  0  0  0
   24.3005   76.3864    2.2135 H   0  0  0  0  0  0  0  0  0  0  0  0
   18.4937   73.8537    2.8173 O   0  0  0  0  0  0  0  0  0  0  0  0
   18.8492   73.6362    1.4643 C   0  0  0  0  0  0  0  0  0  0  0  0
   17.5684   73.5949    2.9534 H   0  0  0  0  0  0  0  0  0  0  0  0
 25 28  1  0
 25 24  1  0
 25 26  1  1
 25 27  2  0
  1  4  1  0
  1 24  1  0
  1  2  1  6
  1  3  2  0
  6 11  1  0
  6 12  1  0
 29 36  1  0
 29 37  1  0
  9  7  1  1
  7 13  1  0
 10  8  1  1
  8 14  1  0
 37 28  1  6
  4  5  1  0
 33 30  1  1
 30 38  1  0
 34 31  1  6
 31 39  1  0
 35 32  1  6
 32 40  1  0
 41 42  1  0
 41 43  1  0
 15 19  2  0
 16 22  2  0
 12 17  1  6
 17 19  1  0
 17 20  1  0
 18 19  1  0
 18 22  1  0
 18 23  1  0
  9 10  1  0
  9 11  1  0
 10 12  1  0
 11  5  1  6
 33 34  1  0
 33 35  1  0
 34 36  1  0
 35 37  1  0
 36 42  1  1
 20 21  2  0
 21 22  1  0
M  CHG  2   2  -1  26  -1
M  END
>  <COMPND>  (157) 
    8629 

>  <AUTHOR>  (157) 
    GENERATED BY OPEN BABEL 3.1.1

>  <MASTER>  (157) 
        0    0    0    0    0    0    0    0   58    0   58    0

>  <minimizedAffinity>  (157) 
-7.00286

>  <CNNscore>  (157) 
0.3521409631

>  <CNNaffinity>  (157) 
4.1263885498

>  <CNN_VS>  (157) 
1.4530704021

>  <CNNaffinity_variance>  (157) 
0.1195307150

$$$$
158
     RDKit          3D

 43 45  0  0  0  0  0  0  0  0999 V2000
   19.3684   74.3226   -3.0827 P   0  0  2  0  0  0  0  0  0  0  0  0
   19.0251   75.8692   -3.4108 O   0  0  0  0  0  0  0  0  0  0  0  0
   18.1989   73.3852   -3.1526 O   0  0  0  0  0  0  0  0  0  0  0  0
   20.1321   74.3882   -1.6577 O   0  0  0  0  0  0  0  0  0  0  0  0
   19.5237   75.1039   -0.5969 C   0  0  0  0  0  0  0  0  0  0  0  0
   19.2574   72.7779   -0.0560 O   0  0  0  0  0  0  0  0  0  0  0  0
   18.7166   73.6850    2.7503 O   0  0  0  0  0  0  0  0  0  0  0  0
   21.3122   72.8591    2.8823 O   0  0  0  0  0  0  0  0  0  0  0  0
   19.6222   74.2216    1.7874 C   0  0  1  0  0  0  0  0  0  0  0  0
   20.8267   73.3160    1.6364 C   0  0  2  0  0  0  0  0  0  0  0  0
   18.9680   74.1121    0.4158 C   0  0  1  0  0  0  0  0  0  0  0  0
   20.2706   72.1926    0.7780 C   0  0  2  0  0  0  0  0  0  0  0  0
   19.1125   73.7443    3.6345 H   0  0  0  0  0  0  0  0  0  0  0  0
   21.6550   73.6104    3.3911 H   0  0  0  0  0  0  0  0  0  0  0  0
   19.9764   69.7114   -0.5392 O   0  0  0  0  0  0  0  0  0  0  0  0
   24.1842   69.9919   -2.3984 O   0  0  0  0  0  0  0  0  0  0  0  0
   21.2733   71.5936   -0.0570 N   0  0  0  0  0  0  0  0  0  0  0  0
   22.0717   69.8532   -1.4640 N   0  0  0  0  0  0  0  0  0  0  0  0
   21.0262   70.3439   -0.6715 C   0  0  0  0  0  0  0  0  0  0  0  0
   22.4854   72.2443   -0.2597 C   0  0  0  0  0  0  0  0  0  0  0  0
   23.4728   71.7623   -1.0174 C   0  0  0  0  0  0  0  0  0  0  0  0
   23.2951   70.4619   -1.6952 C   0  0  0  0  0  0  0  0  0  0  0  0
   21.9223   68.9839   -1.9019 H   0  0  0  0  0  0  0  0  0  0  0  0
   20.5623   73.9874   -4.1196 O   0  0  0  0  0  0  0  0  0  0  0  0
   21.1173   72.5761   -4.6792 P   0  0  2  0  0  0  0  0  0  0  0  0
   20.4880   71.4963   -3.6518 O   0  0  0  0  0  0  0  0  0  0  0  0
   22.6116   72.5102   -4.8084 O   0  0  0  0  0  0  0  0  0  0  0  0
   20.3155   72.3404   -6.0600 O   0  0  0  0  0  0  0  0  0  0  0  0
   18.4923   73.5243   -7.0038 O   0  0  0  0  0  0  0  0  0  0  0  0
   17.4473   69.6928   -8.1345 O   0  0  0  0  0  0  0  0  0  0  0  0
   18.4135   71.5403  -10.1096 O   0  0  0  0  0  0  0  0  0  0  0  0
   18.6305   70.1588   -5.5340 O   0  0  0  0  0  0  0  0  0  0  0  0
   18.3468   70.7669   -7.8473 C   0  0  1  0  0  0  0  0  0  0  0  0
   18.0274   71.9260   -8.7934 C   0  0  1  0  0  0  0  0  0  0  0  0
   18.1649   71.1948   -6.3922 C   0  0  2  0  0  0  0  0  0  0  0  0
   18.7656   73.2040   -8.3729 C   0  0  1  0  0  0  0  0  0  0  0  0
   18.8999   72.5024   -6.0919 C   0  0  1  0  0  0  0  0  0  0  0  0
   17.5581   69.4160   -9.0568 H   0  0  0  0  0  0  0  0  0  0  0  0
   17.9406   70.7319  -10.3628 H   0  0  0  0  0  0  0  0  0  0  0  0
   18.1574   69.3366   -5.7338 H   0  0  0  0  0  0  0  0  0  0  0  0
   17.1507   74.0814   -9.8997 O   0  0  0  0  0  0  0  0  0  0  0  0
   18.3406   74.4107   -9.2067 C   0  0  0  0  0  0  0  0  0  0  0  0
   16.8682   74.8403  -10.4345 H   0  0  0  0  0  0  0  0  0  0  0  0
 25 28  1  0
 25 24  1  0
 25 26  1  1
 25 27  2  0
  1  4  1  0
  1 24  1  0
  1  2  1  6
  1  3  2  0
  6 11  1  0
  6 12  1  0
 29 36  1  0
 29 37  1  0
  9  7  1  1
  7 13  1  0
 10  8  1  1
  8 14  1  0
 37 28  1  6
  4  5  1  0
 33 30  1  6
 30 38  1  0
 34 31  1  6
 31 39  1  0
 35 32  1  1
 32 40  1  0
 41 42  1  0
 41 43  1  0
 15 19  2  0
 16 22  2  0
 12 17  1  6
 17 19  1  0
 17 20  1  0
 18 19  1  0
 18 22  1  0
 18 23  1  0
  9 10  1  0
  9 11  1  0
 10 12  1  0
 11  5  1  6
 33 34  1  0
 33 35  1  0
 34 36  1  0
 35 37  1  0
 36 42  1  6
 20 21  2  0
 21 22  1  0
M  CHG  2   2  -1  26  -1
M  END
>  <COMPND>  (158) 
    8629 

>  <AUTHOR>  (158) 
    GENERATED BY OPEN BABEL 3.1.1

>  <MASTER>  (158) 
        0    0    0    0    0    0    0    0   58    0   58    0

>  <minimizedAffinity>  (158) 
-7.25507

>  <CNNscore>  (158) 
0.2967481613

>  <CNNaffinity>  (158) 
3.6853394508

>  <CNN_VS>  (158) 
1.0936176777

>  <CNNaffinity_variance>  (158) 
0.7900823355

$$$$
159
     RDKit          3D

 43 45  0  0  0  0  0  0  0  0999 V2000
   21.6028   72.8872   -3.6483 P   0  0  2  0  0  0  0  0  0  0  0  0
   22.8343   71.9142   -4.0410 O   0  0  0  0  0  0  0  0  0  0  0  0
   21.1665   73.8268   -4.7337 O   0  0  0  0  0  0  0  0  0  0  0  0
   22.0819   73.5822   -2.2679 O   0  0  0  0  0  0  0  0  0  0  0  0
   21.0985   73.9267   -1.3077 C   0  0  0  0  0  0  0  0  0  0  0  0
   22.4007   73.2112    0.5807 O   0  0  0  0  0  0  0  0  0  0  0  0
   19.8977   71.8882    1.5683 O   0  0  0  0  0  0  0  0  0  0  0  0
   19.9911   74.1706    3.0578 O   0  0  0  0  0  0  0  0  0  0  0  0
   20.0499   73.1205    0.8657 C   0  0  1  0  0  0  0  0  0  0  0  0
   20.6081   74.1853    1.7866 C   0  0  2  0  0  0  0  0  0  0  0  0
   21.1786   72.9490   -0.1433 C   0  0  1  0  0  0  0  0  0  0  0  0
   22.0792   73.8105    1.8465 C   0  0  2  0  0  0  0  0  0  0  0  0
   19.1820   71.9731    2.2183 H   0  0  0  0  0  0  0  0  0  0  0  0
   19.0570   74.4156    2.9668 H   0  0  0  0  0  0  0  0  0  0  0  0
   22.9285   74.7338    4.3772 O   0  0  0  0  0  0  0  0  0  0  0  0
   25.3299   78.1969    2.5113 O   0  0  0  0  0  0  0  0  0  0  0  0
   22.9271   74.9509    2.0512 N   0  0  0  0  0  0  0  0  0  0  0  0
   24.1237   76.4573    3.4460 N   0  0  0  0  0  0  0  0  0  0  0  0
   23.2944   75.3315    3.3630 C   0  0  0  0  0  0  0  0  0  0  0  0
   23.3855   75.6787    0.9585 C   0  0  0  0  0  0  0  0  0  0  0  0
   24.1747   76.7507    1.0547 C   0  0  0  0  0  0  0  0  0  0  0  0
   24.6046   77.2146    2.3896 C   0  0  0  0  0  0  0  0  0  0  0  0
   24.3922   76.7412    4.3500 H   0  0  0  0  0  0  0  0  0  0  0  0
   20.4634   71.8511   -3.1571 O   0  0  0  0  0  0  0  0  0  0  0  0
   19.7171   70.6467   -3.9353 P   0  0  2  0  0  0  0  0  0  0  0  0
   18.2869   70.5503   -3.1851 O   0  0  0  0  0  0  0  0  0  0  0  0
   20.4899   69.3599   -3.9630 O   0  0  0  0  0  0  0  0  0  0  0  0
   19.3736   71.2522   -5.3915 O   0  0  0  0  0  0  0  0  0  0  0  0
   18.1075   73.1676   -5.9787 O   0  0  0  0  0  0  0  0  0  0  0  0
   17.0383   70.6870   -9.1018 O   0  0  0  0  0  0  0  0  0  0  0  0
   18.8031   72.8997   -9.5888 O   0  0  0  0  0  0  0  0  0  0  0  0
   17.3632   69.5984   -6.4393 O   0  0  0  0  0  0  0  0  0  0  0  0
   17.9171   71.2362   -8.1162 C   0  0  1  0  0  0  0  0  0  0  0  0
   18.0606   72.7357   -8.3838 C   0  0  1  0  0  0  0  0  0  0  0  0
   17.3264   70.9916   -6.7289 C   0  0  2  0  0  0  0  0  0  0  0  0
   18.7690   73.4409   -7.2194 C   0  0  1  0  0  0  0  0  0  0  0  0
   18.0742   71.7773   -5.6502 C   0  0  1  0  0  0  0  0  0  0  0  0
   17.4078   70.8384   -9.9850 H   0  0  0  0  0  0  0  0  0  0  0  0
   18.3453   72.4494  -10.3160 H   0  0  0  0  0  0  0  0  0  0  0  0
   16.8862   69.1121   -7.1292 H   0  0  0  0  0  0  0  0  0  0  0  0
   19.9655   75.3211   -8.0808 O   0  0  0  0  0  0  0  0  0  0  0  0
   18.7826   74.9581   -7.3929 C   0  0  0  0  0  0  0  0  0  0  0  0
   19.9877   76.2841   -8.1987 H   0  0  0  0  0  0  0  0  0  0  0  0
 25 28  1  0
 25 24  1  0
 25 26  1  1
 25 27  2  0
  1  4  1  0
  1 24  1  0
  1  2  1  6
  1  3  2  0
  6 11  1  0
  6 12  1  0
 29 36  1  0
 29 37  1  0
  9  7  1  1
  7 13  1  0
 10  8  1  1
  8 14  1  0
 37 28  1  6
  4  5  1  0
 33 30  1  6
 30 38  1  0
 34 31  1  6
 31 39  1  0
 35 32  1  1
 32 40  1  0
 41 42  1  0
 41 43  1  0
 15 19  2  0
 16 22  2  0
 12 17  1  6
 17 19  1  0
 17 20  1  0
 18 19  1  0
 18 22  1  0
 18 23  1  0
  9 10  1  0
  9 11  1  0
 10 12  1  0
 11  5  1  6
 33 34  1  0
 33 35  1  0
 34 36  1  0
 35 37  1  0
 36 42  1  6
 20 21  2  0
 21 22  1  0
M  CHG  2   2  -1  26  -1
M  END
>  <COMPND>  (159) 
    8629 

>  <AUTHOR>  (159) 
    GENERATED BY OPEN BABEL 3.1.1

>  <MASTER>  (159) 
        0    0    0    0    0    0    0    0   58    0   58    0

>  <minimizedAffinity>  (159) 
-6.70077

>  <CNNscore>  (159) 
0.2916667163

>  <CNNaffinity>  (159) 
3.8414580822

>  <CNN_VS>  (159) 
1.1204254627

>  <CNNaffinity_variance>  (159) 
0.0216346849

$$$$
160
     RDKit          3D

 43 45  0  0  0  0  0  0  0  0999 V2000
   20.4280   75.5569   -3.5106 P   0  0  2  0  0  0  0  0  0  0  0  0
   20.0899   77.1249   -3.3000 O   0  0  0  0  0  0  0  0  0  0  0  0
   19.3670   74.7698   -4.2221 O   0  0  0  0  0  0  0  0  0  0  0  0
   20.8103   75.0391   -2.0262 O   0  0  0  0  0  0  0  0  0  0  0  0
   19.7790   74.9342   -1.0602 C   0  0  0  0  0  0  0  0  0  0  0  0
   21.4076   73.6809    0.1851 O   0  0  0  0  0  0  0  0  0  0  0  0
   19.0809   72.3277    1.5064 O   0  0  0  0  0  0  0  0  0  0  0  0
   19.8504   74.1523    3.3813 O   0  0  0  0  0  0  0  0  0  0  0  0
   19.2141   73.6832    1.0820 C   0  0  1  0  0  0  0  0  0  0  0  0
   20.1234   74.4426    2.0255 C   0  0  2  0  0  0  0  0  0  0  0  0
   20.0188   73.6929   -0.2117 C   0  0  1  0  0  0  0  0  0  0  0  0
   21.4984   73.9647    1.5908 C   0  0  2  0  0  0  0  0  0  0  0  0
   18.5700   72.2959    2.3310 H   0  0  0  0  0  0  0  0  0  0  0  0
   18.9649   74.4758    3.6094 H   0  0  0  0  0  0  0  0  0  0  0  0
   22.7952   74.4215    4.0581 O   0  0  0  0  0  0  0  0  0  0  0  0
   25.3815   77.7979    2.2824 O   0  0  0  0  0  0  0  0  0  0  0  0
   22.5149   74.9566    1.8015 N   0  0  0  0  0  0  0  0  0  0  0  0
   24.0821   76.1022    3.1719 N   0  0  0  0  0  0  0  0  0  0  0  0
   23.1020   75.1057    3.0796 C   0  0  0  0  0  0  0  0  0  0  0  0
   22.9200   75.7684    0.7476 C   0  0  0  0  0  0  0  0  0  0  0  0
   23.8550   76.7150    0.8524 C   0  0  0  0  0  0  0  0  0  0  0  0
   24.5181   76.9354    2.1538 C   0  0  0  0  0  0  0  0  0  0  0  0
   24.5047   76.2244    4.0529 H   0  0  0  0  0  0  0  0  0  0  0  0
   21.8583   75.5914   -4.2630 O   0  0  0  0  0  0  0  0  0  0  0  0
   22.7767   74.3989   -4.8525 P   0  0  2  0  0  0  0  0  0  0  0  0
   24.2527   75.0592   -4.9060 O   0  0  0  0  0  0  0  0  0  0  0  0
   22.2985   73.8443   -6.1631 O   0  0  0  0  0  0  0  0  0  0  0  0
   22.8573   73.3167   -3.6578 O   0  0  0  0  0  0  0  0  0  0  0  0
   23.7799   71.1872   -3.1776 O   0  0  0  0  0  0  0  0  0  0  0  0
   19.8199   70.4012   -2.3108 O   0  0  0  0  0  0  0  0  0  0  0  0
   21.7210   70.6322   -0.1706 O   0  0  0  0  0  0  0  0  0  0  0  0
   20.4974   72.0943   -4.5589 O   0  0  0  0  0  0  0  0  0  0  0  0
   21.0048   71.1990   -2.3812 C   0  0  1  0  0  0  0  0  0  0  0  0
   22.0899   70.5210   -1.5424 C   0  0  1  0  0  0  0  0  0  0  0  0
   21.4446   71.3120   -3.8397 C   0  0  2  0  0  0  0  0  0  0  0  0
   23.4604   71.1689   -1.7814 C   0  0  1  0  0  0  0  0  0  0  0  0
   22.8409   71.9245   -3.9627 C   0  0  1  0  0  0  0  0  0  0  0  0
   19.5350   70.3260   -1.3874 H   0  0  0  0  0  0  0  0  0  0  0  0
   20.8537   70.2198   -0.0333 H   0  0  0  0  0  0  0  0  0  0  0  0
   19.6177   71.6960   -4.4734 H   0  0  0  0  0  0  0  0  0  0  0  0
   25.2672   69.6264   -2.0373 O   0  0  0  0  0  0  0  0  0  0  0  0
   24.5826   70.4095   -1.0769 C   0  0  0  0  0  0  0  0  0  0  0  0
   25.9845   69.1378   -1.6033 H   0  0  0  0  0  0  0  0  0  0  0  0
 25 28  1  0
 25 24  1  0
 25 26  1  6
 25 27  2  0
  1  4  1  0
  1 24  1  0
  1  2  1  1
  1  3  2  0
  6 11  1  0
  6 12  1  0
 29 36  1  0
 29 37  1  0
  9  7  1  1
  7 13  1  0
 10  8  1  1
  8 14  1  0
 37 28  1  1
  4  5  1  0
 33 30  1  6
 30 38  1  0
 34 31  1  1
 31 39  1  0
 35 32  1  6
 32 40  1  0
 41 42  1  0
 41 43  1  0
 15 19  2  0
 16 22  2  0
 12 17  1  6
 17 19  1  0
 17 20  1  0
 18 19  1  0
 18 22  1  0
 18 23  1  0
  9 10  1  0
  9 11  1  0
 10 12  1  0
 11  5  1  1
 33 34  1  0
 33 35  1  0
 34 36  1  0
 35 37  1  0
 36 42  1  1
 20 21  2  0
 21 22  1  0
M  CHG  2   2  -1  26  -1
M  END
>  <COMPND>  (160) 
    8629 

>  <AUTHOR>  (160) 
    GENERATED BY OPEN BABEL 3.1.1

>  <MASTER>  (160) 
        0    0    0    0    0    0    0    0   58    0   58    0

>  <minimizedAffinity>  (160) 
-6.19951

>  <CNNscore>  (160) 
0.2909650803

>  <CNNaffinity>  (160) 
3.6279520988

>  <CNN_VS>  (160) 
1.0556073189

>  <CNNaffinity_variance>  (160) 
0.9492034912

$$$$
161
     RDKit          3D

 43 45  0  0  0  0  0  0  0  0999 V2000
   20.6745   70.2118   -1.7268 P   0  0  2  0  0  0  0  0  0  0  0  0
   19.8590   69.2195   -0.7431 O   0  0  0  0  0  0  0  0  0  0  0  0
   20.2089   71.6381   -1.7163 O   0  0  0  0  0  0  0  0  0  0  0  0
   20.6217   69.4660   -3.1617 O   0  0  0  0  0  0  0  0  0  0  0  0
   19.3982   68.8838   -3.5765 C   0  0  0  0  0  0  0  0  0  0  0  0
   18.4486   70.8686   -4.5423 O   0  0  0  0  0  0  0  0  0  0  0  0
   15.9711   70.2156   -2.9845 O   0  0  0  0  0  0  0  0  0  0  0  0
   15.3417   69.3496   -5.4926 O   0  0  0  0  0  0  0  0  0  0  0  0
   16.8946   69.3345   -3.6218 C   0  0  1  0  0  0  0  0  0  0  0  0
   16.7057   69.3717   -5.1240 C   0  0  2  0  0  0  0  0  0  0  0  0
   18.2909   69.9227   -3.4621 C   0  0  1  0  0  0  0  0  0  0  0  0
   17.3906   70.6759   -5.4954 C   0  0  2  0  0  0  0  0  0  0  0  0
   15.0721   69.8607   -3.0730 H   0  0  0  0  0  0  0  0  0  0  0  0
   14.9508   68.5000   -5.2353 H   0  0  0  0  0  0  0  0  0  0  0  0
   15.8729   70.6955   -7.8774 O   0  0  0  0  0  0  0  0  0  0  0  0
   19.6559   70.5431  -10.5054 O   0  0  0  0  0  0  0  0  0  0  0  0
   17.9531   70.6424   -6.8160 N   0  0  0  0  0  0  0  0  0  0  0  0
   17.7578   70.6197   -9.1840 N   0  0  0  0  0  0  0  0  0  0  0  0
   17.1030   70.6548   -7.9463 C   0  0  0  0  0  0  0  0  0  0  0  0
   19.3333   70.5981   -6.9804 C   0  0  0  0  0  0  0  0  0  0  0  0
   19.9420   70.5638   -8.1676 C   0  0  0  0  0  0  0  0  0  0  0  0
   19.1261   70.5739   -9.3990 C   0  0  0  0  0  0  0  0  0  0  0  0
   17.1857   70.6272   -9.9856 H   0  0  0  0  0  0  0  0  0  0  0  0
   22.2091   70.0016   -1.2644 O   0  0  0  0  0  0  0  0  0  0  0  0
   23.1270   70.8301   -0.2233 P   0  0  2  0  0  0  0  0  0  0  0  0
   23.8649   71.9195   -1.1647 O   0  0  0  0  0  0  0  0  0  0  0  0
   24.0607   69.9782    0.5869 O   0  0  0  0  0  0  0  0  0  0  0  0
   22.0781   71.6907    0.6509 O   0  0  0  0  0  0  0  0  0  0  0  0
   22.1746   73.9837    0.0599 O   0  0  0  0  0  0  0  0  0  0  0  0
   19.6983   74.2548    3.3531 O   0  0  0  0  0  0  0  0  0  0  0  0
   18.6049   74.6215    0.7229 O   0  0  0  0  0  0  0  0  0  0  0  0
   21.9153   72.3935    3.3628 O   0  0  0  0  0  0  0  0  0  0  0  0
   20.2381   73.6495    2.1751 C   0  0  1  0  0  0  0  0  0  0  0  0
   20.0029   74.5979    0.9978 C   0  0  1  0  0  0  0  0  0  0  0  0
   21.7323   73.4059    2.3790 C   0  0  2  0  0  0  0  0  0  0  0  0
   20.7840   74.1450   -0.2431 C   0  0  1  0  0  0  0  0  0  0  0  0
   22.4229   73.0075    1.0734 C   0  0  1  0  0  0  0  0  0  0  0  0
   18.7497   74.4117    3.2305 H   0  0  0  0  0  0  0  0  0  0  0  0
   18.1233   74.9086    1.5146 H   0  0  0  0  0  0  0  0  0  0  0  0
   21.4738   72.6577    4.1845 H   0  0  0  0  0  0  0  0  0  0  0  0
   21.2902   74.5999   -2.5334 O   0  0  0  0  0  0  0  0  0  0  0  0
   20.6899   75.1601   -1.3801 C   0  0  0  0  0  0  0  0  0  0  0  0
   21.2374   75.2348   -3.2654 H   0  0  0  0  0  0  0  0  0  0  0  0
 25 28  1  0
 25 24  1  0
 25 26  1  6
 25 27  2  0
  1  4  1  0
  1 24  1  0
  1  2  1  1
  1  3  2  0
  6 11  1  0
  6 12  1  0
 29 36  1  0
 29 37  1  0
  9  7  1  1
  7 13  1  0
 10  8  1  1
  8 14  1  0
 37 28  1  6
  4  5  1  0
 33 30  1  1
 30 38  1  0
 34 31  1  6
 31 39  1  0
 35 32  1  1
 32 40  1  0
 41 42  1  0
 41 43  1  0
 15 19  2  0
 16 22  2  0
 12 17  1  6
 17 19  1  0
 17 20  1  0
 18 19  1  0
 18 22  1  0
 18 23  1  0
  9 10  1  0
  9 11  1  0
 10 12  1  0
 11  5  1  6
 33 34  1  0
 33 35  1  0
 34 36  1  0
 35 37  1  0
 36 42  1  6
 20 21  2  0
 21 22  1  0
M  CHG  2   2  -1  26  -1
M  END
>  <COMPND>  (161) 
    8629 

>  <AUTHOR>  (161) 
    GENERATED BY OPEN BABEL 3.1.1

>  <MASTER>  (161) 
        0    0    0    0    0    0    0    0   58    0   58    0

>  <minimizedAffinity>  (161) 
-8.69646

>  <CNNscore>  (161) 
0.8726971149

>  <CNNaffinity>  (161) 
4.7710838318

>  <CNN_VS>  (161) 
4.1637110710

>  <CNNaffinity_variance>  (161) 
0.0158482604

$$$$
162
     RDKit          3D

 43 45  0  0  0  0  0  0  0  0999 V2000
   20.9115   70.2226   -2.1860 P   0  0  2  0  0  0  0  0  0  0  0  0
   20.5828   71.8032   -2.2910 O   0  0  0  0  0  0  0  0  0  0  0  0
   21.5903   69.6352   -3.3884 O   0  0  0  0  0  0  0  0  0  0  0  0
   19.4926   69.5566   -1.7849 O   0  0  0  0  0  0  0  0  0  0  0  0
   18.6554   69.0735   -2.8210 C   0  0  0  0  0  0  0  0  0  0  0  0
   17.8036   70.9664   -4.0315 O   0  0  0  0  0  0  0  0  0  0  0  0
   15.0934   70.1347   -3.0549 O   0  0  0  0  0  0  0  0  0  0  0  0
   15.1168   69.1955   -5.6150 O   0  0  0  0  0  0  0  0  0  0  0  0
   16.2009   69.3232   -3.4425 C   0  0  1  0  0  0  0  0  0  0  0  0
   16.3558   69.3298   -4.9490 C   0  0  2  0  0  0  0  0  0  0  0  0
   17.4763   70.0222   -2.9886 C   0  0  1  0  0  0  0  0  0  0  0  0
   17.0073   70.6804   -5.1929 C   0  0  2  0  0  0  0  0  0  0  0  0
   14.2672   69.7085   -3.3339 H   0  0  0  0  0  0  0  0  0  0  0  0
   14.7426   68.3202   -5.4288 H   0  0  0  0  0  0  0  0  0  0  0  0
   16.0706   70.7056   -7.8575 O   0  0  0  0  0  0  0  0  0  0  0  0
   20.3544   70.6686   -9.5570 O   0  0  0  0  0  0  0  0  0  0  0  0
   17.8558   70.6781   -6.3510 N   0  0  0  0  0  0  0  0  0  0  0  0
   18.2044   70.6873   -8.7015 N   0  0  0  0  0  0  0  0  0  0  0  0
   17.2848   70.6906   -7.6450 C   0  0  0  0  0  0  0  0  0  0  0  0
   19.2379   70.6639   -6.1975 C   0  0  0  0  0  0  0  0  0  0  0  0
   20.1011   70.6597   -7.2154 C   0  0  0  0  0  0  0  0  0  0  0  0
   19.5864   70.6721   -8.5999 C   0  0  0  0  0  0  0  0  0  0  0  0
   17.8295   70.6954   -9.6121 H   0  0  0  0  0  0  0  0  0  0  0  0
   21.7622   70.1184   -0.8155 O   0  0  0  0  0  0  0  0  0  0  0  0
   23.0731   70.9216   -0.3161 P   0  0  2  0  0  0  0  0  0  0  0  0
   23.7680   71.3938   -1.6987 O   0  0  0  0  0  0  0  0  0  0  0  0
   23.9715   70.1305    0.5899 O   0  0  0  0  0  0  0  0  0  0  0  0
   22.4959   72.2810    0.3350 O   0  0  0  0  0  0  0  0  0  0  0  0
   22.5164   73.0747    2.5680 O   0  0  0  0  0  0  0  0  0  0  0  0
   18.7594   74.3670    1.4429 O   0  0  0  0  0  0  0  0  0  0  0  0
   20.8776   76.2787    1.7694 O   0  0  0  0  0  0  0  0  0  0  0  0
   19.7377   71.8009    0.5279 O   0  0  0  0  0  0  0  0  0  0  0  0
   20.1436   74.0618    1.2523 C   0  0  1  0  0  0  0  0  0  0  0  0
   20.9621   74.9271    2.2125 C   0  0  1  0  0  0  0  0  0  0  0  0
   20.3716   72.5786    1.5378 C   0  0  2  0  0  0  0  0  0  0  0  0
   22.4265   74.4704    2.2584 C   0  0  1  0  0  0  0  0  0  0  0  0
   21.8616   72.2401    1.6107 C   0  0  1  0  0  0  0  0  0  0  0  0
   18.6077   75.3073    1.2627 H   0  0  0  0  0  0  0  0  0  0  0  0
   19.9478   76.5546    1.7444 H   0  0  0  0  0  0  0  0  0  0  0  0
   18.7950   72.0242    0.4920 H   0  0  0  0  0  0  0  0  0  0  0  0
   23.1197   74.5049    4.5447 O   0  0  0  0  0  0  0  0  0  0  0  0
   23.2250   75.2163    3.3253 C   0  0  0  0  0  0  0  0  0  0  0  0
   23.6234   74.9678    5.2330 H   0  0  0  0  0  0  0  0  0  0  0  0
 25 28  1  0
 25 24  1  0
 25 26  1  6
 25 27  2  0
  1  4  1  0
  1 24  1  0
  1  2  1  6
  1  3  2  0
  6 11  1  0
  6 12  1  0
 29 36  1  0
 29 37  1  0
  9  7  1  6
  7 13  1  0
 10  8  1  6
  8 14  1  0
 37 28  1  6
  4  5  1  0
 33 30  1  1
 30 38  1  0
 34 31  1  6
 31 39  1  0
 35 32  1  6
 32 40  1  0
 41 42  1  0
 41 43  1  0
 15 19  2  0
 16 22  2  0
 12 17  1  6
 17 19  1  0
 17 20  1  0
 18 19  1  0
 18 22  1  0
 18 23  1  0
  9 10  1  0
  9 11  1  0
 10 12  1  0
 11  5  1  6
 33 34  1  0
 33 35  1  0
 34 36  1  0
 35 37  1  0
 36 42  1  1
 20 21  2  0
 21 22  1  0
M  CHG  2   2  -1  26  -1
M  END
>  <COMPND>  (162) 
    8629 

>  <AUTHOR>  (162) 
    GENERATED BY OPEN BABEL 3.1.1

>  <MASTER>  (162) 
        0    0    0    0    0    0    0    0   58    0   58    0

>  <minimizedAffinity>  (162) 
-8.20359

>  <CNNscore>  (162) 
0.6438397765

>  <CNNaffinity>  (162) 
4.5653085709

>  <CNN_VS>  (162) 
2.9393272400

>  <CNNaffinity_variance>  (162) 
0.0192920621

$$$$
163
     RDKit          3D

 43 45  0  0  0  0  0  0  0  0999 V2000
   22.8187   72.8503   -3.9540 P   0  0  2  0  0  0  0  0  0  0  0  0
   24.2704   72.9014   -4.6664 O   0  0  0  0  0  0  0  0  0  0  0  0
   22.5130   74.0115   -3.0543 O   0  0  0  0  0  0  0  0  0  0  0  0
   22.7799   71.3912   -3.2558 O   0  0  0  0  0  0  0  0  0  0  0  0
   23.5023   71.1982   -2.0522 C   0  0  0  0  0  0  0  0  0  0  0  0
   22.8849   71.0527    0.2654 O   0  0  0  0  0  0  0  0  0  0  0  0
   20.3911   69.6812   -0.6782 O   0  0  0  0  0  0  0  0  0  0  0  0
   19.5242   72.2199   -0.1884 O   0  0  0  0  0  0  0  0  0  0  0  0
   21.1187   70.7480   -1.2848 C   0  0  1  0  0  0  0  0  0  0  0  0
   20.8832   72.0403   -0.5312 C   0  0  2  0  0  0  0  0  0  0  0  0
   22.6024   70.5027   -1.0400 C   0  0  1  0  0  0  0  0  0  0  0  0
   21.7746   71.8621    0.6861 C   0  0  2  0  0  0  0  0  0  0  0  0
   19.4407   69.8157   -0.8217 H   0  0  0  0  0  0  0  0  0  0  0  0
   18.9985   72.3288   -0.9962 H   0  0  0  0  0  0  0  0  0  0  0  0
   21.9122   72.5404    3.4245 O   0  0  0  0  0  0  0  0  0  0  0  0
   23.7007   76.6854    2.4960 O   0  0  0  0  0  0  0  0  0  0  0  0
   22.2723   73.1117    1.1882 N   0  0  0  0  0  0  0  0  0  0  0  0
   22.8028   74.6037    2.9599 N   0  0  0  0  0  0  0  0  0  0  0  0
   22.2977   73.3532    2.5816 C   0  0  0  0  0  0  0  0  0  0  0  0
   22.7287   74.0820    0.3026 C   0  0  0  0  0  0  0  0  0  0  0  0
   23.2062   75.2699    0.6795 C   0  0  0  0  0  0  0  0  0  0  0  0
   23.2670   75.6015    2.1177 C   0  0  0  0  0  0  0  0  0  0  0  0
   22.8297   74.7943    3.9257 H   0  0  0  0  0  0  0  0  0  0  0  0
   21.8066   72.6824   -5.2032 O   0  0  0  0  0  0  0  0  0  0  0  0
   20.2728   73.1543   -5.3976 P   0  0  2  0  0  0  0  0  0  0  0  0
   20.4077   74.7370   -5.7047 O   0  0  0  0  0  0  0  0  0  0  0  0
   19.3755   72.8222   -4.2407 O   0  0  0  0  0  0  0  0  0  0  0  0
   19.8202   72.5033   -6.8035 O   0  0  0  0  0  0  0  0  0  0  0  0
   18.9656   70.4307   -6.0351 O   0  0  0  0  0  0  0  0  0  0  0  0
   17.7361   70.2326   -9.9721 O   0  0  0  0  0  0  0  0  0  0  0  0
   15.7985   70.6938   -7.9030 O   0  0  0  0  0  0  0  0  0  0  0  0
   20.3180   71.3681   -9.3211 O   0  0  0  0  0  0  0  0  0  0  0  0
   18.0348   70.8780   -8.7312 C   0  0  1  0  0  0  0  0  0  0  0  0
   17.1367   70.2756   -7.6490 C   0  0  1  0  0  0  0  0  0  0  0  0
   19.5076   70.6539   -8.3939 C   0  0  2  0  0  0  0  0  0  0  0  0
   17.5797   70.7227   -6.2494 C   0  0  1  0  0  0  0  0  0  0  0  0
   19.8316   71.0871   -6.9630 C   0  0  1  0  0  0  0  0  0  0  0  0
   16.8024   70.3715  -10.1923 H   0  0  0  0  0  0  0  0  0  0  0  0
   15.5312   70.4057   -8.7900 H   0  0  0  0  0  0  0  0  0  0  0  0
   20.1036   71.0846  -10.2231 H   0  0  0  0  0  0  0  0  0  0  0  0
   17.2880   70.4495   -3.8937 O   0  0  0  0  0  0  0  0  0  0  0  0
   16.7983   70.0105   -5.1474 C   0  0  0  0  0  0  0  0  0  0  0  0
   16.7996   70.0048   -3.1828 H   0  0  0  0  0  0  0  0  0  0  0  0
 25 28  1  0
 25 24  1  0
 25 26  1  6
 25 27  2  0
  1  4  1  0
  1 24  1  0
  1  2  1  6
  1  3  2  0
  6 11  1  0
  6 12  1  0
 29 36  1  0
 29 37  1  0
  9  7  1  1
  7 13  1  0
 10  8  1  1
  8 14  1  0
 37 28  1  6
  4  5  1  0
 33 30  1  6
 30 38  1  0
 34 31  1  6
 31 39  1  0
 35 32  1  6
 32 40  1  0
 41 42  1  0
 41 43  1  0
 15 19  2  0
 16 22  2  0
 12 17  1  6
 17 19  1  0
 17 20  1  0
 18 19  1  0
 18 22  1  0
 18 23  1  0
  9 10  1  0
  9 11  1  0
 10 12  1  0
 11  5  1  6
 33 34  1  0
 33 35  1  0
 34 36  1  0
 35 37  1  0
 36 42  1  1
 20 21  2  0
 21 22  1  0
M  CHG  2   2  -1  26  -1
M  END
>  <COMPND>  (163) 
    8629 

>  <AUTHOR>  (163) 
    GENERATED BY OPEN BABEL 3.1.1

>  <MASTER>  (163) 
        0    0    0    0    0    0    0    0   58    0   58    0

>  <minimizedAffinity>  (163) 
-8.44227

>  <CNNscore>  (163) 
0.5771547556

>  <CNNaffinity>  (163) 
4.2855758667

>  <CNN_VS>  (163) 
2.4734404087

>  <CNNaffinity_variance>  (163) 
0.1481545419

$$$$
164
     RDKit          3D

 43 45  0  0  0  0  0  0  0  0999 V2000
   23.4757   70.7091   -2.1641 P   0  0  2  0  0  0  0  0  0  0  0  0
   24.0067   71.5920   -3.4114 O   0  0  0  0  0  0  0  0  0  0  0  0
   24.5360   69.9322   -1.4406 O   0  0  0  0  0  0  0  0  0  0  0  0
   22.2695   69.8335   -2.7937 O   0  0  0  0  0  0  0  0  0  0  0  0
   21.4569   70.4226   -3.7938 C   0  0  0  0  0  0  0  0  0  0  0  0
   19.2308   71.1822   -4.2854 O   0  0  0  0  0  0  0  0  0  0  0  0
   18.3288   69.3915   -2.0558 O   0  0  0  0  0  0  0  0  0  0  0  0
   17.7334   67.9233   -4.2753 O   0  0  0  0  0  0  0  0  0  0  0  0
   19.3737   69.1923   -3.0064 C   0  0  1  0  0  0  0  0  0  0  0  0
   18.7926   68.8544   -4.3635 C   0  0  2  0  0  0  0  0  0  0  0  0
   20.0324   70.5408   -3.2693 C   0  0  1  0  0  0  0  0  0  0  0  0
   18.3345   70.2160   -4.8580 C   0  0  2  0  0  0  0  0  0  0  0  0
   17.8935   68.5439   -1.8717 H   0  0  0  0  0  0  0  0  0  0  0  0
   18.0754   67.0735   -3.9565 H   0  0  0  0  0  0  0  0  0  0  0  0
   16.1133   69.8512   -6.5642 O   0  0  0  0  0  0  0  0  0  0  0  0
   18.6435   70.6543  -10.3317 O   0  0  0  0  0  0  0  0  0  0  0  0
   18.3843   70.3242   -6.2888 N   0  0  0  0  0  0  0  0  0  0  0  0
   17.3749   70.2516   -8.4387 N   0  0  0  0  0  0  0  0  0  0  0  0
   17.2120   70.1215   -7.0536 C   0  0  0  0  0  0  0  0  0  0  0  0
   19.5858   70.6287   -6.9193 C   0  0  0  0  0  0  0  0  0  0  0  0
   19.7247   70.7480   -8.2413 C   0  0  0  0  0  0  0  0  0  0  0  0
   18.5482   70.5516   -9.1126 C   0  0  0  0  0  0  0  0  0  0  0  0
   16.5718   70.1143   -8.9918 H   0  0  0  0  0  0  0  0  0  0  0  0
   22.6990   71.7959   -1.2539 O   0  0  0  0  0  0  0  0  0  0  0  0
   21.8242   71.6208    0.0941 P   0  0  2  0  0  0  0  0  0  0  0  0
   22.9235   71.1752    1.1944 O   0  0  0  0  0  0  0  0  0  0  0  0
   20.6661   70.6753   -0.0424 O   0  0  0  0  0  0  0  0  0  0  0  0
   21.4143   73.1245    0.5133 O   0  0  0  0  0  0  0  0  0  0  0  0
   21.6891   73.8431    2.7549 O   0  0  0  0  0  0  0  0  0  0  0  0
   18.8737   76.5993    1.5189 O   0  0  0  0  0  0  0  0  0  0  0  0
   21.5886   77.4366    1.9392 O   0  0  0  0  0  0  0  0  0  0  0  0
   18.7069   73.8570    0.6073 O   0  0  0  0  0  0  0  0  0  0  0  0
   20.0048   75.7366    1.3715 C   0  0  1  0  0  0  0  0  0  0  0  0
   21.0777   76.1778    2.3689 C   0  0  1  0  0  0  0  0  0  0  0  0
   19.5739   74.2972    1.6470 C   0  0  2  0  0  0  0  0  0  0  0  0
   22.2089   75.1446    2.4589 C   0  0  1  0  0  0  0  0  0  0  0  0
   20.7773   73.3603    1.7662 C   0  0  1  0  0  0  0  0  0  0  0  0
   19.1404   77.5148    1.3448 H   0  0  0  0  0  0  0  0  0  0  0  0
   20.8642   78.0798    1.8861 H   0  0  0  0  0  0  0  0  0  0  0  0
   17.9491   74.4580    0.5421 H   0  0  0  0  0  0  0  0  0  0  0  0
   23.1245   74.4954    4.5682 O   0  0  0  0  0  0  0  0  0  0  0  0
   23.2094   75.4865    3.5608 C   0  0  0  0  0  0  0  0  0  0  0  0
   23.7560   74.6998    5.2761 H   0  0  0  0  0  0  0  0  0  0  0  0
 25 28  1  0
 25 24  1  0
 25 26  1  1
 25 27  2  0
  1  4  1  0
  1 24  1  0
  1  2  1  6
  1  3  2  0
  6 11  1  0
  6 12  1  0
 29 36  1  0
 29 37  1  0
  9  7  1  1
  7 13  1  0
 10  8  1  1
  8 14  1  0
 37 28  1  6
  4  5  1  0
 33 30  1  1
 30 38  1  0
 34 31  1  6
 31 39  1  0
 35 32  1  6
 32 40  1  0
 41 42  1  0
 41 43  1  0
 15 19  2  0
 16 22  2  0
 12 17  1  6
 17 19  1  0
 17 20  1  0
 18 19  1  0
 18 22  1  0
 18 23  1  0
  9 10  1  0
  9 11  1  0
 10 12  1  0
 11  5  1  6
 33 34  1  0
 33 35  1  0
 34 36  1  0
 35 37  1  0
 36 42  1  1
 20 21  2  0
 21 22  1  0
M  CHG  2   2  -1  26  -1
M  END
>  <COMPND>  (164) 
    8629 

>  <AUTHOR>  (164) 
    GENERATED BY OPEN BABEL 3.1.1

>  <MASTER>  (164) 
        0    0    0    0    0    0    0    0   58    0   58    0

>  <minimizedAffinity>  (164) 
-8.11727

>  <CNNscore>  (164) 
0.5617586970

>  <CNNaffinity>  (164) 
4.5818848610

>  <CNN_VS>  (164) 
2.5739135742

>  <CNNaffinity_variance>  (164) 
0.0781907961

$$$$
165
     RDKit          3D

 43 45  0  0  0  0  0  0  0  0999 V2000
   23.1527   71.1979   -2.7598 P   0  0  2  0  0  0  0  0  0  0  0  0
   24.0771   71.9134   -3.8783 O   0  0  0  0  0  0  0  0  0  0  0  0
   23.6778   69.8896   -2.2460 O   0  0  0  0  0  0  0  0  0  0  0  0
   21.6865   71.1474   -3.4420 O   0  0  0  0  0  0  0  0  0  0  0  0
   20.9743   69.9225   -3.4241 C   0  0  0  0  0  0  0  0  0  0  0  0
   18.9432   70.9915   -4.1351 O   0  0  0  0  0  0  0  0  0  0  0  0
   17.5421   69.2253   -2.1582 O   0  0  0  0  0  0  0  0  0  0  0  0
   17.0654   67.9611   -4.5269 O   0  0  0  0  0  0  0  0  0  0  0  0
   18.6698   68.9384   -2.9836 C   0  0  1  0  0  0  0  0  0  0  0  0
   18.2342   68.7483   -4.4215 C   0  0  2  0  0  0  0  0  0  0  0  0
   19.5191   70.2002   -3.0728 C   0  0  1  0  0  0  0  0  0  0  0  0
   18.0169   70.1812   -4.8771 C   0  0  2  0  0  0  0  0  0  0  0  0
   16.9848   68.4340   -2.0860 H   0  0  0  0  0  0  0  0  0  0  0  0
   17.2548   67.0588   -4.2256 H   0  0  0  0  0  0  0  0  0  0  0  0
   16.0472   69.9524   -6.8885 O   0  0  0  0  0  0  0  0  0  0  0  0
   19.0905   70.8618  -10.2281 O   0  0  0  0  0  0  0  0  0  0  0  0
   18.2668   70.3536   -6.2804 N   0  0  0  0  0  0  0  0  0  0  0  0
   17.5641   70.4056   -8.5497 N   0  0  0  0  0  0  0  0  0  0  0  0
   17.2082   70.2164   -7.2083 C   0  0  0  0  0  0  0  0  0  0  0  0
   19.5497   70.6557   -6.7239 C   0  0  0  0  0  0  0  0  0  0  0  0
   19.8729   70.8317   -8.0067 C   0  0  0  0  0  0  0  0  0  0  0  0
   18.8250   70.7058   -9.0402 C   0  0  0  0  0  0  0  0  0  0  0  0
   16.8429   70.3145   -9.2141 H   0  0  0  0  0  0  0  0  0  0  0  0
   22.9902   72.3464   -1.6339 O   0  0  0  0  0  0  0  0  0  0  0  0
   22.2469   73.7811   -1.6805 P   0  0  2  0  0  0  0  0  0  0  0  0
   23.0827   74.6668   -0.6154 O   0  0  0  0  0  0  0  0  0  0  0  0
   20.7713   73.7186   -1.4112 O   0  0  0  0  0  0  0  0  0  0  0  0
   22.6386   74.3975   -3.1198 O   0  0  0  0  0  0  0  0  0  0  0  0
   22.4899   76.4704   -4.2589 O   0  0  0  0  0  0  0  0  0  0  0  0
   20.8252   74.0172   -7.1331 O   0  0  0  0  0  0  0  0  0  0  0  0
   23.4588   75.0892   -7.5364 O   0  0  0  0  0  0  0  0  0  0  0  0
   20.2523   73.5561   -4.3333 O   0  0  0  0  0  0  0  0  0  0  0  0
   21.7177   74.3576   -6.0687 C   0  0  1  0  0  0  0  0  0  0  0  0
   22.5709   75.5449   -6.5195 C   0  0  1  0  0  0  0  0  0  0  0  0
   20.9014   74.7217   -4.8300 C   0  0  2  0  0  0  0  0  0  0  0  0
   23.3620   76.1362   -5.3449 C   0  0  1  0  0  0  0  0  0  0  0  0
   21.7756   75.3464   -3.7411 C   0  0  1  0  0  0  0  0  0  0  0  0
   21.3371   73.7846   -7.9226 H   0  0  0  0  0  0  0  0  0  0  0  0
   22.9467   74.7178   -8.2719 H   0  0  0  0  0  0  0  0  0  0  0  0
   19.7019   73.1702   -5.0319 H   0  0  0  0  0  0  0  0  0  0  0  0
   25.2172   77.0666   -6.5289 O   0  0  0  0  0  0  0  0  0  0  0  0
   24.0969   77.4162   -5.7370 C   0  0  0  0  0  0  0  0  0  0  0  0
   25.6944   77.8714   -6.7861 H   0  0  0  0  0  0  0  0  0  0  0  0
 25 28  1  0
 25 24  1  0
 25 26  1  1
 25 27  2  0
  1  4  1  0
  1 24  1  0
  1  2  1  6
  1  3  2  0
  6 11  1  0
  6 12  1  0
 29 36  1  0
 29 37  1  0
  9  7  1  1
  7 13  1  0
 10  8  1  1
  8 14  1  0
 37 28  1  6
  4  5  1  0
 33 30  1  6
 30 38  1  0
 34 31  1  6
 31 39  1  0
 35 32  1  1
 32 40  1  0
 41 42  1  0
 41 43  1  0
 15 19  2  0
 16 22  2  0
 12 17  1  6
 17 19  1  0
 17 20  1  0
 18 19  1  0
 18 22  1  0
 18 23  1  0
  9 10  1  0
  9 11  1  0
 10 12  1  0
 11  5  1  6
 33 34  1  0
 33 35  1  0
 34 36  1  0
 35 37  1  0
 36 42  1  6
 20 21  2  0
 21 22  1  0
M  CHG  2   2  -1  26  -1
M  END
>  <COMPND>  (165) 
    8629 

>  <AUTHOR>  (165) 
    GENERATED BY OPEN BABEL 3.1.1

>  <MASTER>  (165) 
        0    0    0    0    0    0    0    0   58    0   58    0

>  <minimizedAffinity>  (165) 
-6.85193

>  <CNNscore>  (165) 
0.5418509245

>  <CNNaffinity>  (165) 
4.3835892677

>  <CNN_VS>  (165) 
2.3752520084

>  <CNNaffinity_variance>  (165) 
0.1491048485

$$$$
166
     RDKit          3D

 43 45  0  0  0  0  0  0  0  0999 V2000
   22.1827   71.9831   -3.4159 P   0  0  2  0  0  0  0  0  0  0  0  0
   21.6620   70.4527   -3.4813 O   0  0  0  0  0  0  0  0  0  0  0  0
   23.6161   72.1823   -3.8120 O   0  0  0  0  0  0  0  0  0  0  0  0
   21.7939   72.4620   -1.9201 O   0  0  0  0  0  0  0  0  0  0  0  0
   22.6259   72.0629   -0.8448 C   0  0  0  0  0  0  0  0  0  0  0  0
   22.4594   72.5539    1.5015 O   0  0  0  0  0  0  0  0  0  0  0  0
   19.5349   71.9508    1.2292 O   0  0  0  0  0  0  0  0  0  0  0  0
   19.5832   74.6774    1.2167 O   0  0  0  0  0  0  0  0  0  0  0  0
   20.4156   72.5839    0.3025 C   0  0  1  0  0  0  0  0  0  0  0  0
   20.7311   73.9940    0.7561 C   0  0  2  0  0  0  0  0  0  0  0  0
   21.7751   71.9042    0.4079 C   0  0  1  0  0  0  0  0  0  0  0  0
   21.7480   73.7504    1.8582 C   0  0  2  0  0  0  0  0  0  0  0  0
   18.6598   72.3678    1.1799 H   0  0  0  0  0  0  0  0  0  0  0  0
   18.9670   74.8083    0.4792 H   0  0  0  0  0  0  0  0  0  0  0  0
   22.8730   74.6048    4.3041 O   0  0  0  0  0  0  0  0  0  0  0  0
   25.3345   77.9035    2.2301 O   0  0  0  0  0  0  0  0  0  0  0  0
   22.6859   74.8298    1.9864 N   0  0  0  0  0  0  0  0  0  0  0  0
   24.0978   76.2465    3.2694 N   0  0  0  0  0  0  0  0  0  0  0  0
   23.1899   75.1799    3.2607 C   0  0  0  0  0  0  0  0  0  0  0  0
   23.0968   75.5287    0.8565 C   0  0  0  0  0  0  0  0  0  0  0  0
   23.9624   76.5442    0.8819 C   0  0  0  0  0  0  0  0  0  0  0  0
   24.5362   76.9731    2.1737 C   0  0  0  0  0  0  0  0  0  0  0  0
   24.4619   76.5082    4.1461 H   0  0  0  0  0  0  0  0  0  0  0  0
   21.1141   72.7703   -4.3387 O   0  0  0  0  0  0  0  0  0  0  0  0
   21.1623   73.1850   -5.9003 P   0  0  2  0  0  0  0  0  0  0  0  0
   22.4521   72.3829   -6.4576 O   0  0  0  0  0  0  0  0  0  0  0  0
   21.2019   74.6661   -6.1427 O   0  0  0  0  0  0  0  0  0  0  0  0
   19.8971   72.4324   -6.5620 O   0  0  0  0  0  0  0  0  0  0  0  0
   19.2380   70.2386   -5.9543 O   0  0  0  0  0  0  0  0  0  0  0  0
   17.7035   70.3508   -9.7862 O   0  0  0  0  0  0  0  0  0  0  0  0
   15.9179   70.4658   -7.5398 O   0  0  0  0  0  0  0  0  0  0  0  0
   20.2553   71.5928   -9.2157 O   0  0  0  0  0  0  0  0  0  0  0  0
   18.0629   70.8878   -8.5103 C   0  0  1  0  0  0  0  0  0  0  0  0
   17.2957   70.1187   -7.4330 C   0  0  1  0  0  0  0  0  0  0  0  0
   19.5695   70.7345   -8.3105 C   0  0  2  0  0  0  0  0  0  0  0  0
   17.8239   70.4531   -6.0314 C   0  0  1  0  0  0  0  0  0  0  0  0
   19.9827   71.0436   -6.8704 C   0  0  1  0  0  0  0  0  0  0  0  0
   16.7481   70.4455   -9.9195 H   0  0  0  0  0  0  0  0  0  0  0  0
   15.5969   70.2501   -8.4295 H   0  0  0  0  0  0  0  0  0  0  0  0
   19.9854   71.3870  -10.1238 H   0  0  0  0  0  0  0  0  0  0  0  0
   16.0726   70.2773   -4.4156 O   0  0  0  0  0  0  0  0  0  0  0  0
   17.1811   69.5812   -4.9549 C   0  0  0  0  0  0  0  0  0  0  0  0
   15.6533   69.7342   -3.7293 H   0  0  0  0  0  0  0  0  0  0  0  0
 25 28  1  0
 25 24  1  0
 25 26  1  6
 25 27  2  0
  1  4  1  0
  1 24  1  0
  1  2  1  1
  1  3  2  0
  6 11  1  0
  6 12  1  0
 29 36  1  0
 29 37  1  0
  9  7  1  1
  7 13  1  0
 10  8  1  1
  8 14  1  0
 37 28  1  1
  4  5  1  0
 33 30  1  6
 30 38  1  0
 34 31  1  1
 31 39  1  0
 35 32  1  6
 32 40  1  0
 41 42  1  0
 41 43  1  0
 15 19  2  0
 16 22  2  0
 12 17  1  6
 17 19  1  0
 17 20  1  0
 18 19  1  0
 18 22  1  0
 18 23  1  0
  9 10  1  0
  9 11  1  0
 10 12  1  0
 11  5  1  6
 33 34  1  0
 33 35  1  0
 34 36  1  0
 35 37  1  0
 36 42  1  1
 20 21  2  0
 21 22  1  0
M  CHG  2   2  -1  26  -1
M  END
>  <COMPND>  (166) 
    8629 

>  <AUTHOR>  (166) 
    GENERATED BY OPEN BABEL 3.1.1

>  <MASTER>  (166) 
        0    0    0    0    0    0    0    0   58    0   58    0

>  <minimizedAffinity>  (166) 
-7.67580

>  <CNNscore>  (166) 
0.5326912999

>  <CNNaffinity>  (166) 
4.2229495049

>  <CNN_VS>  (166) 
2.2495284081

>  <CNNaffinity_variance>  (166) 
0.0473101512

$$$$
167
     RDKit          3D

 43 45  0  0  0  0  0  0  0  0999 V2000
   23.4851   70.8268   -2.1846 P   0  0  2  0  0  0  0  0  0  0  0  0
   23.9390   71.4934   -3.5871 O   0  0  0  0  0  0  0  0  0  0  0  0
   24.5555   70.0494   -1.4765 O   0  0  0  0  0  0  0  0  0  0  0  0
   22.1484   69.9974   -2.5634 O   0  0  0  0  0  0  0  0  0  0  0  0
   21.3510   70.4559   -3.6413 C   0  0  0  0  0  0  0  0  0  0  0  0
   19.1531   71.2402   -4.2138 O   0  0  0  0  0  0  0  0  0  0  0  0
   18.1491   69.4525   -2.0259 O   0  0  0  0  0  0  0  0  0  0  0  0
   17.6226   67.9972   -4.2712 O   0  0  0  0  0  0  0  0  0  0  0  0
   19.2270   69.2451   -2.9371 C   0  0  1  0  0  0  0  0  0  0  0  0
   18.6940   68.9174   -4.3163 C   0  0  2  0  0  0  0  0  0  0  0  0
   19.9091   70.5874   -3.1704 C   0  0  1  0  0  0  0  0  0  0  0  0
   18.2690   70.2851   -4.8230 C   0  0  2  0  0  0  0  0  0  0  0  0
   17.6984   68.6089   -1.8611 H   0  0  0  0  0  0  0  0  0  0  0  0
   17.9435   67.1429   -3.9426 H   0  0  0  0  0  0  0  0  0  0  0  0
   16.1448   69.8050   -6.6216 O   0  0  0  0  0  0  0  0  0  0  0  0
   18.7870   70.7440  -10.2793 O   0  0  0  0  0  0  0  0  0  0  0  0
   18.3739   70.3971   -6.2506 N   0  0  0  0  0  0  0  0  0  0  0  0
   17.4621   70.2731   -8.4414 N   0  0  0  0  0  0  0  0  0  0  0  0
   17.2475   70.1333   -7.0643 C   0  0  0  0  0  0  0  0  0  0  0  0
   19.5833   70.7653   -6.8298 C   0  0  0  0  0  0  0  0  0  0  0  0
   19.7719   70.8929   -8.1449 C   0  0  0  0  0  0  0  0  0  0  0  0
   18.6455   70.6353   -9.0652 C   0  0  0  0  0  0  0  0  0  0  0  0
   16.6916   70.0940   -9.0279 H   0  0  0  0  0  0  0  0  0  0  0  0
   22.9073   72.0870   -1.3533 O   0  0  0  0  0  0  0  0  0  0  0  0
   21.7606   72.1736   -0.2173 P   0  0  2  0  0  0  0  0  0  0  0  0
   22.4443   73.0849    0.9313 O   0  0  0  0  0  0  0  0  0  0  0  0
   21.2678   70.8391    0.2625 O   0  0  0  0  0  0  0  0  0  0  0  0
   20.6192   73.1164   -0.8601 O   0  0  0  0  0  0  0  0  0  0  0  0
   19.7964   74.7515    0.6453 O   0  0  0  0  0  0  0  0  0  0  0  0
   16.9552   75.1050   -2.3302 O   0  0  0  0  0  0  0  0  0  0  0  0
   18.9150   77.1762   -1.9877 O   0  0  0  0  0  0  0  0  0  0  0  0
   17.9919   72.4955   -1.6263 O   0  0  0  0  0  0  0  0  0  0  0  0
   18.2640   74.8825   -1.7982 C   0  0  1  0  0  0  0  0  0  0  0  0
   18.6920   76.1387   -1.0369 C   0  0  1  0  0  0  0  0  0  0  0  0
   18.2242   73.6749   -0.8636 C   0  0  2  0  0  0  0  0  0  0  0  0
   19.9638   75.8831   -0.2169 C   0  0  1  0  0  0  0  0  0  0  0  0
   19.5186   73.5400   -0.0597 C   0  0  1  0  0  0  0  0  0  0  0  0
   16.9736   75.8702   -2.9249 H   0  0  0  0  0  0  0  0  0  0  0  0
   18.1046   77.3274   -2.4991 H   0  0  0  0  0  0  0  0  0  0  0  0
   17.1696   72.5933   -2.1303 H   0  0  0  0  0  0  0  0  0  0  0  0
   21.0319   78.0175   -0.1050 O   0  0  0  0  0  0  0  0  0  0  0  0
   20.3197   77.0725    0.6723 C   0  0  0  0  0  0  0  0  0  0  0  0
   21.2648   78.7802    0.4479 H   0  0  0  0  0  0  0  0  0  0  0  0
 25 28  1  0
 25 24  1  0
 25 26  1  1
 25 27  2  0
  1  4  1  0
  1 24  1  0
  1  2  1  6
  1  3  2  0
  6 11  1  0
  6 12  1  0
 29 36  1  0
 29 37  1  0
  9  7  1  1
  7 13  1  0
 10  8  1  1
  8 14  1  0
 37 28  1  6
  4  5  1  0
 33 30  1  1
 30 38  1  0
 34 31  1  6
 31 39  1  0
 35 32  1  6
 32 40  1  0
 41 42  1  0
 41 43  1  0
 15 19  2  0
 16 22  2  0
 12 17  1  6
 17 19  1  0
 17 20  1  0
 18 19  1  0
 18 22  1  0
 18 23  1  0
  9 10  1  0
  9 11  1  0
 10 12  1  0
 11  5  1  6
 33 34  1  0
 33 35  1  0
 34 36  1  0
 35 37  1  0
 36 42  1  1
 20 21  2  0
 21 22  1  0
M  CHG  2   2  -1  26  -1
M  END
>  <COMPND>  (167) 
    8629 

>  <AUTHOR>  (167) 
    GENERATED BY OPEN BABEL 3.1.1

>  <MASTER>  (167) 
        0    0    0    0    0    0    0    0   58    0   58    0

>  <minimizedAffinity>  (167) 
-6.74596

>  <CNNscore>  (167) 
0.5296247005

>  <CNNaffinity>  (167) 
4.4337320328

>  <CNN_VS>  (167) 
2.3482139111

>  <CNNaffinity_variance>  (167) 
0.1114310026

$$$$
168
     RDKit          3D

 43 45  0  0  0  0  0  0  0  0999 V2000
   18.5205   74.7919   -6.1790 P   0  0  2  0  0  0  0  0  0  0  0  0
   17.0409   74.5496   -5.5712 O   0  0  0  0  0  0  0  0  0  0  0  0
   18.8534   76.2225   -6.4854 O   0  0  0  0  0  0  0  0  0  0  0  0
   18.5988   73.7688   -7.4301 O   0  0  0  0  0  0  0  0  0  0  0  0
   19.6454   72.8141   -7.4582 C   0  0  0  0  0  0  0  0  0  0  0  0
   19.4870   70.4256   -7.2482 O   0  0  0  0  0  0  0  0  0  0  0  0
   17.2880   70.5803   -9.2808 O   0  0  0  0  0  0  0  0  0  0  0  0
   15.9152   70.3327   -6.9376 O   0  0  0  0  0  0  0  0  0  0  0  0
   17.6143   71.4925   -8.2334 C   0  0  1  0  0  0  0  0  0  0  0  0
   17.1975   70.9245   -6.8928 C   0  0  2  0  0  0  0  0  0  0  0  0
   19.1318   71.5342   -8.1034 C   0  0  1  0  0  0  0  0  0  0  0  0
   18.2989   69.9135   -6.6227 C   0  0  2  0  0  0  0  0  0  0  0  0
   16.3238   70.5370   -9.3829 H   0  0  0  0  0  0  0  0  0  0  0  0
   15.2494   71.0162   -7.1119 H   0  0  0  0  0  0  0  0  0  0  0  0
   16.7972   68.2193   -4.9339 O   0  0  0  0  0  0  0  0  0  0  0  0
   19.3486   69.3194   -1.2567 O   0  0  0  0  0  0  0  0  0  0  0  0
   18.5492   69.7378   -5.2199 N   0  0  0  0  0  0  0  0  0  0  0  0
   18.0689   68.7683   -3.1043 N   0  0  0  0  0  0  0  0  0  0  0  0
   17.7358   68.8640   -4.4615 C   0  0  0  0  0  0  0  0  0  0  0  0
   19.5916   70.4274   -4.6103 C   0  0  0  0  0  0  0  0  0  0  0  0
   19.8954   70.3261   -3.3146 C   0  0  0  0  0  0  0  0  0  0  0  0
   19.0944   69.4341   -2.4517 C   0  0  0  0  0  0  0  0  0  0  0  0
   17.5157   68.1657   -2.5561 H   0  0  0  0  0  0  0  0  0  0  0  0
   19.4826   74.0976   -5.0812 O   0  0  0  0  0  0  0  0  0  0  0  0
   20.8362   74.6240   -4.3715 P   0  0  2  0  0  0  0  0  0  0  0  0
   20.3010   75.7513   -3.3418 O   0  0  0  0  0  0  0  0  0  0  0  0
   21.8851   75.1087   -5.3300 O   0  0  0  0  0  0  0  0  0  0  0  0
   21.3054   73.4008   -3.4289 O   0  0  0  0  0  0  0  0  0  0  0  0
   22.4159   73.3446   -1.3359 O   0  0  0  0  0  0  0  0  0  0  0  0
   24.2945   70.1549   -3.1654 O   0  0  0  0  0  0  0  0  0  0  0  0
   22.3885   69.6678   -1.0731 O   0  0  0  0  0  0  0  0  0  0  0  0
   23.6489   72.5235   -4.6991 O   0  0  0  0  0  0  0  0  0  0  0  0
   23.2001   71.0258   -2.8669 C   0  0  1  0  0  0  0  0  0  0  0  0
   22.9270   70.9547   -1.3632 C   0  0  1  0  0  0  0  0  0  0  0  0
   23.5684   72.4497   -3.2798 C   0  0  2  0  0  0  0  0  0  0  0  0
   21.9498   72.0540   -0.9251 C   0  0  1  0  0  0  0  0  0  0  0  0
   22.5579   73.4699   -2.7523 C   0  0  1  0  0  0  0  0  0  0  0  0
   24.0670   69.2491   -2.9061 H   0  0  0  0  0  0  0  0  0  0  0  0
   23.0150   68.9828   -1.3550 H   0  0  0  0  0  0  0  0  0  0  0  0
   24.2920   71.8731   -5.0206 H   0  0  0  0  0  0  0  0  0  0  0  0
   22.8183   71.3325    1.1806 O   0  0  0  0  0  0  0  0  0  0  0  0
   21.7853   72.1014    0.5924 C   0  0  0  0  0  0  0  0  0  0  0  0
   22.7264   71.3538    2.1464 H   0  0  0  0  0  0  0  0  0  0  0  0
 25 28  1  0
 25 24  1  0
 25 26  1  1
 25 27  2  0
  1  4  1  0
  1 24  1  0
  1  2  1  1
  1  3  2  0
  6 11  1  0
  6 12  1  0
 29 36  1  0
 29 37  1  0
  9  7  1  6
  7 13  1  0
 10  8  1  6
  8 14  1  0
 37 28  1  6
  4  5  1  0
 33 30  1  1
 30 38  1  0
 34 31  1  6
 31 39  1  0
 35 32  1  6
 32 40  1  0
 41 42  1  0
 41 43  1  0
 15 19  2  0
 16 22  2  0
 12 17  1  1
 17 19  1  0
 17 20  1  0
 18 19  1  0
 18 22  1  0
 18 23  1  0
  9 10  1  0
  9 11  1  0
 10 12  1  0
 11  5  1  1
 33 34  1  0
 33 35  1  0
 34 36  1  0
 35 37  1  0
 36 42  1  1
 20 21  2  0
 21 22  1  0
M  CHG  2   2  -1  26  -1
M  END
>  <COMPND>  (168) 
    8629 

>  <AUTHOR>  (168) 
    GENERATED BY OPEN BABEL 3.1.1

>  <MASTER>  (168) 
        0    0    0    0    0    0    0    0   58    0   58    0

>  <minimizedAffinity>  (168) 
-7.36318

>  <CNNscore>  (168) 
0.5202388167

>  <CNNaffinity>  (168) 
4.2457304001

>  <CNN_VS>  (168) 
2.2087938786

>  <CNNaffinity_variance>  (168) 
0.4976855218

$$$$
169
     RDKit          3D

 43 45  0  0  0  0  0  0  0  0999 V2000
   23.5046   70.7146   -2.2199 P   0  0  2  0  0  0  0  0  0  0  0  0
   23.9730   71.5698   -3.5109 O   0  0  0  0  0  0  0  0  0  0  0  0
   24.6090   69.9992   -1.4989 O   0  0  0  0  0  0  0  0  0  0  0  0
   22.3128   69.7780   -2.7860 O   0  0  0  0  0  0  0  0  0  0  0  0
   21.4939   70.2813   -3.8271 C   0  0  0  0  0  0  0  0  0  0  0  0
   19.3208   71.1903   -4.3018 O   0  0  0  0  0  0  0  0  0  0  0  0
   18.3226   69.4912   -2.0418 O   0  0  0  0  0  0  0  0  0  0  0  0
   17.5985   68.0451   -4.2375 O   0  0  0  0  0  0  0  0  0  0  0  0
   19.3393   69.2089   -3.0020 C   0  0  1  0  0  0  0  0  0  0  0  0
   18.7194   68.8984   -4.3484 C   0  0  2  0  0  0  0  0  0  0  0  0
   20.0878   70.5049   -3.2877 C   0  0  1  0  0  0  0  0  0  0  0  0
   18.3520   70.2835   -4.8531 C   0  0  2  0  0  0  0  0  0  0  0  0
   17.8311   68.6783   -1.8431 H   0  0  0  0  0  0  0  0  0  0  0  0
   17.8839   67.1768   -3.9129 H   0  0  0  0  0  0  0  0  0  0  0  0
   16.1457   69.7857   -6.5449 O   0  0  0  0  0  0  0  0  0  0  0  0
   18.6215   70.6551  -10.3338 O   0  0  0  0  0  0  0  0  0  0  0  0
   18.3918   70.3728   -6.2855 N   0  0  0  0  0  0  0  0  0  0  0  0
   17.3802   70.2192   -8.4301 N   0  0  0  0  0  0  0  0  0  0  0  0
   17.2283   70.1019   -7.0426 C   0  0  0  0  0  0  0  0  0  0  0  0
   19.5750   70.7261   -6.9252 C   0  0  0  0  0  0  0  0  0  0  0  0
   19.7036   70.8323   -8.2493 C   0  0  0  0  0  0  0  0  0  0  0  0
   18.5352   70.5659   -9.1130 C   0  0  0  0  0  0  0  0  0  0  0  0
   16.5829   70.0348   -8.9780 H   0  0  0  0  0  0  0  0  0  0  0  0
   22.7154   71.8069   -1.3272 O   0  0  0  0  0  0  0  0  0  0  0  0
   21.8743   71.6493    0.0442 P   0  0  2  0  0  0  0  0  0  0  0  0
   22.9841   71.1345    1.1030 O   0  0  0  0  0  0  0  0  0  0  0  0
   20.6697   70.7609   -0.0713 O   0  0  0  0  0  0  0  0  0  0  0  0
   21.5480   73.1630    0.4995 O   0  0  0  0  0  0  0  0  0  0  0  0
   19.9465   74.4949   -0.6309 O   0  0  0  0  0  0  0  0  0  0  0  0
   22.2669   77.4957    1.0007 O   0  0  0  0  0  0  0  0  0  0  0  0
   19.6528   76.9824    2.0737 O   0  0  0  0  0  0  0  0  0  0  0  0
   23.5200   75.0921   -0.0151 O   0  0  0  0  0  0  0  0  0  0  0  0
   21.6283   76.2165    0.9639 C   0  0  1  0  0  0  0  0  0  0  0  0
   20.1192   76.4372    0.8426 C   0  0  1  0  0  0  0  0  0  0  0  0
   22.1548   75.4301   -0.2352 C   0  0  2  0  0  0  0  0  0  0  0  0
   19.3906   75.1232    0.5301 C   0  0  1  0  0  0  0  0  0  0  0  0
   21.3300   74.1669   -0.4884 C   0  0  1  0  0  0  0  0  0  0  0  0
   21.9374   77.9999    1.7601 H   0  0  0  0  0  0  0  0  0  0  0  0
   20.1211   77.8115    2.2596 H   0  0  0  0  0  0  0  0  0  0  0  0
   24.0315   75.9001    0.1436 H   0  0  0  0  0  0  0  0  0  0  0  0
   17.7197   76.6923   -0.1444 O   0  0  0  0  0  0  0  0  0  0  0  0
   17.9060   75.3453    0.2494 C   0  0  0  0  0  0  0  0  0  0  0  0
   16.7794   76.8481   -0.3267 H   0  0  0  0  0  0  0  0  0  0  0  0
 25 28  1  0
 25 24  1  0
 25 26  1  1
 25 27  2  0
  1  4  1  0
  1 24  1  0
  1  2  1  6
  1  3  2  0
  6 11  1  0
  6 12  1  0
 29 36  1  0
 29 37  1  0
  9  7  1  1
  7 13  1  0
 10  8  1  1
  8 14  1  0
 37 28  1  1
  4  5  1  0
 33 30  1  6
 30 38  1  0
 34 31  1  1
 31 39  1  0
 35 32  1  1
 32 40  1  0
 41 42  1  0
 41 43  1  0
 15 19  2  0
 16 22  2  0
 12 17  1  6
 17 19  1  0
 17 20  1  0
 18 19  1  0
 18 22  1  0
 18 23  1  0
  9 10  1  0
  9 11  1  0
 10 12  1  0
 11  5  1  6
 33 34  1  0
 33 35  1  0
 34 36  1  0
 35 37  1  0
 36 42  1  6
 20 21  2  0
 21 22  1  0
M  CHG  2   2  -1  26  -1
M  END
>  <COMPND>  (169) 
    8629 

>  <AUTHOR>  (169) 
    GENERATED BY OPEN BABEL 3.1.1

>  <MASTER>  (169) 
        0    0    0    0    0    0    0    0   58    0   58    0

>  <minimizedAffinity>  (169) 
-7.30154

>  <CNNscore>  (169) 
0.5183432102

>  <CNNaffinity>  (169) 
4.5167565346

>  <CNN_VS>  (169) 
2.3412301540

>  <CNNaffinity_variance>  (169) 
0.0866583437

$$$$
170
     RDKit          3D

 43 45  0  0  0  0  0  0  0  0999 V2000
   22.0162   72.6739   -4.1252 P   0  0  2  0  0  0  0  0  0  0  0  0
   22.5357   72.5311   -5.6508 O   0  0  0  0  0  0  0  0  0  0  0  0
   22.6056   73.8221   -3.3599 O   0  0  0  0  0  0  0  0  0  0  0  0
   22.2642   71.2060   -3.4915 O   0  0  0  0  0  0  0  0  0  0  0  0
   23.1295   71.0887   -2.3756 C   0  0  0  0  0  0  0  0  0  0  0  0
   22.8238   70.9271    0.0023 O   0  0  0  0  0  0  0  0  0  0  0  0
   20.2908   69.4450   -0.6125 O   0  0  0  0  0  0  0  0  0  0  0  0
   19.3852   71.9461   -0.0116 O   0  0  0  0  0  0  0  0  0  0  0  0
   20.8869   70.5394   -1.3068 C   0  0  1  0  0  0  0  0  0  0  0  0
   20.6950   71.8238   -0.5275 C   0  0  2  0  0  0  0  0  0  0  0  0
   22.3990   70.3596   -1.2562 C   0  0  1  0  0  0  0  0  0  0  0  0
   21.7431   71.6896    0.5640 C   0  0  2  0  0  0  0  0  0  0  0  0
   19.3249   69.5377   -0.6316 H   0  0  0  0  0  0  0  0  0  0  0  0
   18.7552   72.0285   -0.7445 H   0  0  0  0  0  0  0  0  0  0  0  0
   21.8153   72.5416    3.2560 O   0  0  0  0  0  0  0  0  0  0  0  0
   23.6961   76.5916    2.1153 O   0  0  0  0  0  0  0  0  0  0  0  0
   22.2468   72.9618    0.9990 N   0  0  0  0  0  0  0  0  0  0  0  0
   22.7519   74.5574    2.6858 N   0  0  0  0  0  0  0  0  0  0  0  0
   22.2372   73.2925    2.3741 C   0  0  0  0  0  0  0  0  0  0  0  0
   22.7435   73.8661    0.0665 C   0  0  0  0  0  0  0  0  0  0  0  0
   23.2295   75.0689    0.3799 C   0  0  0  0  0  0  0  0  0  0  0  0
   23.2556   75.4919    1.7950 C   0  0  0  0  0  0  0  0  0  0  0  0
   22.7549   74.8096    3.6378 H   0  0  0  0  0  0  0  0  0  0  0  0
   20.4094   72.7309   -4.2923 O   0  0  0  0  0  0  0  0  0  0  0  0
   19.3796   73.9755   -4.2345 P   0  0  2  0  0  0  0  0  0  0  0  0
   20.2640   75.2145   -4.7823 O   0  0  0  0  0  0  0  0  0  0  0  0
   18.7644   74.2030   -2.8841 O   0  0  0  0  0  0  0  0  0  0  0  0
   18.3165   73.6811   -5.4127 O   0  0  0  0  0  0  0  0  0  0  0  0
   19.4842   73.1196   -7.3971 O   0  0  0  0  0  0  0  0  0  0  0  0
   15.6429   73.2506   -8.9066 O   0  0  0  0  0  0  0  0  0  0  0  0
   16.9500   70.7151   -8.5739 O   0  0  0  0  0  0  0  0  0  0  0  0
   16.4781   75.1777   -6.9145 O   0  0  0  0  0  0  0  0  0  0  0  0
   16.6476   72.9961   -7.9211 C   0  0  1  0  0  0  0  0  0  0  0  0
   17.6264   71.9663   -8.4888 C   0  0  1  0  0  0  0  0  0  0  0  0
   17.3700   74.3022   -7.5959 C   0  0  2  0  0  0  0  0  0  0  0  0
   18.8735   71.8405   -7.6035 C   0  0  1  0  0  0  0  0  0  0  0  0
   18.6228   74.0598   -6.7522 C   0  0  1  0  0  0  0  0  0  0  0  0
   15.1801   72.4254   -9.1172 H   0  0  0  0  0  0  0  0  0  0  0  0
   16.1643   70.8084   -9.1353 H   0  0  0  0  0  0  0  0  0  0  0  0
   15.6893   75.3235   -7.4590 H   0  0  0  0  0  0  0  0  0  0  0  0
   21.1920   71.5721   -8.1148 O   0  0  0  0  0  0  0  0  0  0  0  0
   19.9322   70.9369   -8.2319 C   0  0  0  0  0  0  0  0  0  0  0  0
   21.8757   71.0083   -8.5103 H   0  0  0  0  0  0  0  0  0  0  0  0
 25 28  1  0
 25 24  1  0
 25 26  1  6
 25 27  2  0
  1  4  1  0
  1 24  1  0
  1  2  1  6
  1  3  2  0
  6 11  1  0
  6 12  1  0
 29 36  1  0
 29 37  1  0
  9  7  1  1
  7 13  1  0
 10  8  1  1
  8 14  1  0
 37 28  1  1
  4  5  1  0
 33 30  1  6
 30 38  1  0
 34 31  1  1
 31 39  1  0
 35 32  1  1
 32 40  1  0
 41 42  1  0
 41 43  1  0
 15 19  2  0
 16 22  2  0
 12 17  1  6
 17 19  1  0
 17 20  1  0
 18 19  1  0
 18 22  1  0
 18 23  1  0
  9 10  1  0
  9 11  1  0
 10 12  1  0
 11  5  1  6
 33 34  1  0
 33 35  1  0
 34 36  1  0
 35 37  1  0
 36 42  1  6
 20 21  2  0
 21 22  1  0
M  CHG  2   2  -1  26  -1
M  END
>  <COMPND>  (170) 
    8629 

>  <AUTHOR>  (170) 
    GENERATED BY OPEN BABEL 3.1.1

>  <MASTER>  (170) 
        0    0    0    0    0    0    0    0   58    0   58    0

>  <minimizedAffinity>  (170) 
-7.37086

>  <CNNscore>  (170) 
0.4288314581

>  <CNNaffinity>  (170) 
3.9936528206

>  <CNN_VS>  (170) 
1.7126039267

>  <CNNaffinity_variance>  (170) 
0.2238475531

$$$$
171
     RDKit          3D

 43 45  0  0  0  0  0  0  0  0999 V2000
   19.4713   70.0541   -2.1265 P   0  0  2  0  0  0  0  0  0  0  0  0
   20.0425   69.3588   -0.7819 O   0  0  0  0  0  0  0  0  0  0  0  0
   20.5007   70.3333   -3.1819 O   0  0  0  0  0  0  0  0  0  0  0  0
   18.6562   71.3414   -1.5820 O   0  0  0  0  0  0  0  0  0  0  0  0
   18.8100   72.5757   -2.2607 C   0  0  0  0  0  0  0  0  0  0  0  0
   20.0916   73.0364   -0.2811 O   0  0  0  0  0  0  0  0  0  0  0  0
   19.8802   75.9286   -1.0437 O   0  0  0  0  0  0  0  0  0  0  0  0
   22.3982   75.2797   -1.8655 O   0  0  0  0  0  0  0  0  0  0  0  0
   20.0183   74.7823   -1.8818 C   0  0  1  0  0  0  0  0  0  0  0  0
   21.4338   74.2482   -1.8130 C   0  0  2  0  0  0  0  0  0  0  0  0
   19.2187   73.6456   -1.2575 C   0  0  1  0  0  0  0  0  0  0  0  0
   21.4307   73.5180   -0.4807 C   0  0  2  0  0  0  0  0  0  0  0  0
   20.3822   76.6680   -1.4222 H   0  0  0  0  0  0  0  0  0  0  0  0
   22.3608   75.7136   -2.7321 H   0  0  0  0  0  0  0  0  0  0  0  0
   22.1575   72.0850    1.8422 O   0  0  0  0  0  0  0  0  0  0  0  0
   24.9076   69.2570   -0.5412 O   0  0  0  0  0  0  0  0  0  0  0  0
   22.3345   72.4025   -0.4654 N   0  0  0  0  0  0  0  0  0  0  0  0
   23.5261   70.6779    0.6535 N   0  0  0  0  0  0  0  0  0  0  0  0
   22.6338   71.7529    0.7548 C   0  0  0  0  0  0  0  0  0  0  0  0
   22.9133   71.9633   -1.6511 C   0  0  0  0  0  0  0  0  0  0  0  0
   23.7633   70.9374   -1.7305 C   0  0  0  0  0  0  0  0  0  0  0  0
   24.1287   70.2044   -0.5012 C   0  0  0  0  0  0  0  0  0  0  0  0
   23.7497   70.2103    1.4909 H   0  0  0  0  0  0  0  0  0  0  0  0
   18.2940   69.0459   -2.5851 O   0  0  0  0  0  0  0  0  0  0  0  0
   17.2804   69.0998   -3.8431 P   0  0  2  0  0  0  0  0  0  0  0  0
   16.2143   70.2379   -3.4121 O   0  0  0  0  0  0  0  0  0  0  0  0
   16.6650   67.7763   -4.1947 O   0  0  0  0  0  0  0  0  0  0  0  0
   18.1393   69.7749   -5.0311 O   0  0  0  0  0  0  0  0  0  0  0  0
   18.8392   71.9745   -5.5682 O   0  0  0  0  0  0  0  0  0  0  0  0
   17.5406   70.7663   -9.2971 O   0  0  0  0  0  0  0  0  0  0  0  0
   20.3554   71.0346   -8.7941 O   0  0  0  0  0  0  0  0  0  0  0  0
   16.0813   69.9629   -6.9297 O   0  0  0  0  0  0  0  0  0  0  0  0
   18.1384   70.6000   -8.0086 C   0  0  1  0  0  0  0  0  0  0  0  0
   19.3483   71.5320   -7.9173 C   0  0  1  0  0  0  0  0  0  0  0  0
   17.1106   70.9464   -6.9329 C   0  0  2  0  0  0  0  0  0  0  0  0
   19.8813   71.6088   -6.4803 C   0  0  1  0  0  0  0  0  0  0  0  0
   17.7535   71.0456   -5.5484 C   0  0  1  0  0  0  0  0  0  0  0  0
   18.1878   70.5475   -9.9846 H   0  0  0  0  0  0  0  0  0  0  0  0
   20.0058   70.9906   -9.6980 H   0  0  0  0  0  0  0  0  0  0  0  0
   15.6821   69.9100   -7.8115 H   0  0  0  0  0  0  0  0  0  0  0  0
   20.6655   73.7640   -7.1501 O   0  0  0  0  0  0  0  0  0  0  0  0
   20.9872   72.6518   -6.3354 C   0  0  0  0  0  0  0  0  0  0  0  0
   21.3605   74.4362   -7.0678 H   0  0  0  0  0  0  0  0  0  0  0  0
 25 28  1  0
 25 24  1  0
 25 26  1  1
 25 27  2  0
  1  4  1  0
  1 24  1  0
  1  2  1  1
  1  3  2  0
  6 11  1  0
  6 12  1  0
 29 36  1  0
 29 37  1  0
  9  7  1  1
  7 13  1  0
 10  8  1  1
  8 14  1  0
 37 28  1  6
  4  5  1  0
 33 30  1  6
 30 38  1  0
 34 31  1  6
 31 39  1  0
 35 32  1  1
 32 40  1  0
 41 42  1  0
 41 43  1  0
 15 19  2  0
 16 22  2  0
 12 17  1  6
 17 19  1  0
 17 20  1  0
 18 19  1  0
 18 22  1  0
 18 23  1  0
  9 10  1  0
  9 11  1  0
 10 12  1  0
 11  5  1  6
 33 34  1  0
 33 35  1  0
 34 36  1  0
 35 37  1  0
 36 42  1  6
 20 21  2  0
 21 22  1  0
M  CHG  2   2  -1  26  -1
M  END
>  <COMPND>  (171) 
    8629 

>  <AUTHOR>  (171) 
    GENERATED BY OPEN BABEL 3.1.1

>  <MASTER>  (171) 
        0    0    0    0    0    0    0    0   58    0   58    0

>  <minimizedAffinity>  (171) 
-8.08923

>  <CNNscore>  (171) 
0.4271319807

>  <CNNaffinity>  (171) 
4.2435064316

>  <CNN_VS>  (171) 
1.8125373125

>  <CNNaffinity_variance>  (171) 
0.3513393700

$$$$
172
     RDKit          3D

 43 45  0  0  0  0  0  0  0  0999 V2000
   22.7761   72.6444   -3.6544 P   0  0  2  0  0  0  0  0  0  0  0  0
   23.9993   72.7525   -4.7078 O   0  0  0  0  0  0  0  0  0  0  0  0
   22.6460   73.8055   -2.7130 O   0  0  0  0  0  0  0  0  0  0  0  0
   22.9874   71.1979   -2.9610 O   0  0  0  0  0  0  0  0  0  0  0  0
   23.4262   71.1512   -1.6145 C   0  0  0  0  0  0  0  0  0  0  0  0
   22.2905   71.1480    0.5030 O   0  0  0  0  0  0  0  0  0  0  0  0
   20.1848   69.4890   -0.8404 O   0  0  0  0  0  0  0  0  0  0  0  0
   19.0627   71.9744   -0.8241 O   0  0  0  0  0  0  0  0  0  0  0  0
   20.9636   70.5604   -1.3704 C   0  0  1  0  0  0  0  0  0  0  0  0
   20.4730   71.8861   -0.8269 C   0  0  2  0  0  0  0  0  0  0  0  0
   22.3604   70.4674   -0.7691 C   0  0  1  0  0  0  0  0  0  0  0  0
   21.0617   71.8897    0.5736 C   0  0  2  0  0  0  0  0  0  0  0  0
   19.2884   69.5273   -1.2103 H   0  0  0  0  0  0  0  0  0  0  0  0
   18.7364   71.9684   -1.7375 H   0  0  0  0  0  0  0  0  0  0  0  0
   21.8558   72.5090    3.2126 O   0  0  0  0  0  0  0  0  0  0  0  0
   22.1166   77.0133    2.2722 O   0  0  0  0  0  0  0  0  0  0  0  0
   21.3440   73.2159    1.0457 N   0  0  0  0  0  0  0  0  0  0  0  0
   21.9852   74.7513    2.7421 N   0  0  0  0  0  0  0  0  0  0  0  0
   21.7345   73.4190    2.3898 C   0  0  0  0  0  0  0  0  0  0  0  0
   21.2331   74.2981    0.1793 C   0  0  0  0  0  0  0  0  0  0  0  0
   21.4745   75.5626    0.5313 C   0  0  0  0  0  0  0  0  0  0  0  0
   21.8875   75.8610    1.9178 C   0  0  0  0  0  0  0  0  0  0  0  0
   22.2582   74.9169    3.6737 H   0  0  0  0  0  0  0  0  0  0  0  0
   21.4940   72.4057   -4.6094 O   0  0  0  0  0  0  0  0  0  0  0  0
   20.2064   73.3357   -4.9100 P   0  0  2  0  0  0  0  0  0  0  0  0
   20.8423   74.8172   -5.0454 O   0  0  0  0  0  0  0  0  0  0  0  0
   19.1131   73.2222   -3.8874 O   0  0  0  0  0  0  0  0  0  0  0  0
   19.7614   72.9444   -6.4113 O   0  0  0  0  0  0  0  0  0  0  0  0
   17.4422   73.1515   -6.8532 O   0  0  0  0  0  0  0  0  0  0  0  0
   18.5448   70.9188  -10.1472 O   0  0  0  0  0  0  0  0  0  0  0  0
   17.8673   73.6904  -10.4750 O   0  0  0  0  0  0  0  0  0  0  0  0
   19.7575   70.3897   -7.5726 O   0  0  0  0  0  0  0  0  0  0  0  0
   18.7141   71.9059   -9.1262 C   0  0  1  0  0  0  0  0  0  0  0  0
   17.6096   72.9529   -9.2834 C   0  0  1  0  0  0  0  0  0  0  0  0
   18.6240   71.2304   -7.7591 C   0  0  2  0  0  0  0  0  0  0  0  0
   17.5620   73.8940   -8.0722 C   0  0  1  0  0  0  0  0  0  0  0  0
   18.5324   72.2557   -6.6275 C   0  0  1  0  0  0  0  0  0  0  0  0
   18.6014   71.3411  -11.0178 H   0  0  0  0  0  0  0  0  0  0  0  0
   17.8953   73.0844  -11.2321 H   0  0  0  0  0  0  0  0  0  0  0  0
   19.8041   69.7450   -8.2951 H   0  0  0  0  0  0  0  0  0  0  0  0
   16.2651   75.5168   -6.8917 O   0  0  0  0  0  0  0  0  0  0  0  0
   16.3692   74.8456   -8.1339 C   0  0  0  0  0  0  0  0  0  0  0  0
   15.5103   76.1262   -6.9164 H   0  0  0  0  0  0  0  0  0  0  0  0
 25 28  1  0
 25 24  1  0
 25 26  1  6
 25 27  2  0
  1  4  1  0
  1 24  1  0
  1  2  1  6
  1  3  2  0
  6 11  1  0
  6 12  1  0
 29 36  1  0
 29 37  1  0
  9  7  1  1
  7 13  1  0
 10  8  1  1
  8 14  1  0
 37 28  1  6
  4  5  1  0
 33 30  1  6
 30 38  1  0
 34 31  1  6
 31 39  1  0
 35 32  1  1
 32 40  1  0
 41 42  1  0
 41 43  1  0
 15 19  2  0
 16 22  2  0
 12 17  1  6
 17 19  1  0
 17 20  1  0
 18 19  1  0
 18 22  1  0
 18 23  1  0
  9 10  1  0
  9 11  1  0
 10 12  1  0
 11  5  1  6
 33 34  1  0
 33 35  1  0
 34 36  1  0
 35 37  1  0
 36 42  1  6
 20 21  2  0
 21 22  1  0
M  CHG  2   2  -1  26  -1
M  END
>  <COMPND>  (172) 
    8629 

>  <AUTHOR>  (172) 
    GENERATED BY OPEN BABEL 3.1.1

>  <MASTER>  (172) 
        0    0    0    0    0    0    0    0   58    0   58    0

>  <minimizedAffinity>  (172) 
-7.14600

>  <CNNscore>  (172) 
0.4046260417

>  <CNNaffinity>  (172) 
4.0778264999

>  <CNN_VS>  (172) 
1.6499948502

>  <CNNaffinity_variance>  (172) 
0.0416531675

$$$$
173
     RDKit          3D

 43 45  0  0  0  0  0  0  0  0999 V2000
   21.0087   75.2368   -5.7093 P   0  0  2  0  0  0  0  0  0  0  0  0
   20.0316   75.5157   -4.4504 O   0  0  0  0  0  0  0  0  0  0  0  0
   22.0071   76.3214   -5.9892 O   0  0  0  0  0  0  0  0  0  0  0  0
   19.9931   74.8874   -6.9194 O   0  0  0  0  0  0  0  0  0  0  0  0
   18.9869   73.9145   -6.6980 C   0  0  0  0  0  0  0  0  0  0  0  0
   19.2595   71.5905   -7.2444 O   0  0  0  0  0  0  0  0  0  0  0  0
   17.9996   72.2559   -9.8827 O   0  0  0  0  0  0  0  0  0  0  0  0
   15.9335   71.1296   -8.5046 O   0  0  0  0  0  0  0  0  0  0  0  0
   17.7142   72.7830   -8.5881 C   0  0  1  0  0  0  0  0  0  0  0  0
   16.9536   71.7664   -7.7625 C   0  0  2  0  0  0  0  0  0  0  0  0
   19.0287   72.8925   -7.8258 C   0  0  1  0  0  0  0  0  0  0  0  0
   18.0576   70.8095   -7.3457 C   0  0  2  0  0  0  0  0  0  0  0  0
   17.1751   72.1771  -10.3886 H   0  0  0  0  0  0  0  0  0  0  0  0
   15.2553   71.7795   -8.7461 H   0  0  0  0  0  0  0  0  0  0  0  0
   19.9835   70.4699   -5.3077 O   0  0  0  0  0  0  0  0  0  0  0  0
   16.9398   68.4182   -2.5206 O   0  0  0  0  0  0  0  0  0  0  0  0
   17.7957   70.1902   -6.0772 N   0  0  0  0  0  0  0  0  0  0  0  0
   18.4664   69.4488   -3.9215 N   0  0  0  0  0  0  0  0  0  0  0  0
   18.8328   70.0681   -5.1233 C   0  0  0  0  0  0  0  0  0  0  0  0
   16.5219   69.7120   -5.7894 C   0  0  0  0  0  0  0  0  0  0  0  0
   16.1891   69.1228   -4.6390 C   0  0  0  0  0  0  0  0  0  0  0  0
   17.2145   68.9559   -3.5889 C   0  0  0  0  0  0  0  0  0  0  0  0
   19.1727   69.3524   -3.2422 H   0  0  0  0  0  0  0  0  0  0  0  0
   21.6584   73.7999   -5.3539 O   0  0  0  0  0  0  0  0  0  0  0  0
   22.7020   73.3631   -4.1993 P   0  0  2  0  0  0  0  0  0  0  0  0
   22.8297   74.6959   -3.2911 O   0  0  0  0  0  0  0  0  0  0  0  0
   24.0100   72.8397   -4.7182 O   0  0  0  0  0  0  0  0  0  0  0  0
   21.8816   72.3205   -3.2802 O   0  0  0  0  0  0  0  0  0  0  0  0
   22.8520   72.2672   -1.1187 O   0  0  0  0  0  0  0  0  0  0  0  0
   20.0799   69.2393   -0.6724 O   0  0  0  0  0  0  0  0  0  0  0  0
   19.6530   71.7575    0.6408 O   0  0  0  0  0  0  0  0  0  0  0  0
   21.4960   69.5427   -3.1789 O   0  0  0  0  0  0  0  0  0  0  0  0
   20.5793   70.4870   -1.1617 C   0  0  1  0  0  0  0  0  0  0  0  0
   20.8891   71.3834    0.0389 C   0  0  1  0  0  0  0  0  0  0  0  0
   21.8421   70.2320   -1.9824 C   0  0  2  0  0  0  0  0  0  0  0  0
   21.6741   72.6307   -0.3891 C   0  0  1  0  0  0  0  0  0  0  0  0
   22.5732   71.5343   -2.3133 C   0  0  1  0  0  0  0  0  0  0  0  0
   19.2778   69.3942   -0.1508 H   0  0  0  0  0  0  0  0  0  0  0  0
   19.1669   70.9609    0.9060 H   0  0  0  0  0  0  0  0  0  0  0  0
   21.0341   68.7201   -2.9559 H   0  0  0  0  0  0  0  0  0  0  0  0
   22.1480   72.6231    1.9528 O   0  0  0  0  0  0  0  0  0  0  0  0
   22.1302   73.4589    0.8102 C   0  0  0  0  0  0  0  0  0  0  0  0
   22.4367   73.1367    2.7239 H   0  0  0  0  0  0  0  0  0  0  0  0
 25 28  1  0
 25 24  1  0
 25 26  1  1
 25 27  2  0
  1  4  1  0
  1 24  1  0
  1  2  1  1
  1  3  2  0
  6 11  1  0
  6 12  1  0
 29 36  1  0
 29 37  1  0
  9  7  1  6
  7 13  1  0
 10  8  1  6
  8 14  1  0
 37 28  1  6
  4  5  1  0
 33 30  1  1
 30 38  1  0
 34 31  1  6
 31 39  1  0
 35 32  1  6
 32 40  1  0
 41 42  1  0
 41 43  1  0
 15 19  2  0
 16 22  2  0
 12 17  1  1
 17 19  1  0
 17 20  1  0
 18 19  1  0
 18 22  1  0
 18 23  1  0
  9 10  1  0
  9 11  1  0
 10 12  1  0
 11  5  1  1
 33 34  1  0
 33 35  1  0
 34 36  1  0
 35 37  1  0
 36 42  1  1
 20 21  2  0
 21 22  1  0
M  CHG  2   2  -1  26  -1
M  END
>  <COMPND>  (173) 
    8629 

>  <AUTHOR>  (173) 
    GENERATED BY OPEN BABEL 3.1.1

>  <MASTER>  (173) 
        0    0    0    0    0    0    0    0   58    0   58    0

>  <minimizedAffinity>  (173) 
-8.27571

>  <CNNscore>  (173) 
0.4005558193

>  <CNNaffinity>  (173) 
4.1437640190

>  <CNN_VS>  (173) 
1.6598087549

>  <CNNaffinity_variance>  (173) 
0.7017589808

$$$$
174
     RDKit          3D

 43 45  0  0  0  0  0  0  0  0999 V2000
   21.2901   70.4693   -1.9019 P   0  0  2  0  0  0  0  0  0  0  0  0
   20.3317   69.5774   -0.9514 O   0  0  0  0  0  0  0  0  0  0  0  0
   22.4490   69.7312   -2.5048 O   0  0  0  0  0  0  0  0  0  0  0  0
   21.6712   71.7446   -0.9820 O   0  0  0  0  0  0  0  0  0  0  0  0
   21.9847   71.5247    0.3823 C   0  0  0  0  0  0  0  0  0  0  0  0
   21.6773   73.9049    0.2647 O   0  0  0  0  0  0  0  0  0  0  0  0
   22.5185   73.9674    3.1421 O   0  0  0  0  0  0  0  0  0  0  0  0
   19.8045   74.1719    3.3117 O   0  0  0  0  0  0  0  0  0  0  0  0
   21.7455   72.9888    2.4492 C   0  0  1  0  0  0  0  0  0  0  0  0
   20.3484   73.5114    2.1872 C   0  0  2  0  0  0  0  0  0  0  0  0
   22.3067   72.8602    1.0386 C   0  0  1  0  0  0  0  0  0  0  0  0
   20.5773   74.4479    1.0131 C   0  0  2  0  0  0  0  0  0  0  0  0
   22.1790   74.0668    4.0459 H   0  0  0  0  0  0  0  0  0  0  0  0
   19.6775   73.5342    4.0314 H   0  0  0  0  0  0  0  0  0  0  0  0
   18.8702   72.2852    0.3915 O   0  0  0  0  0  0  0  0  0  0  0  0
   16.2069   74.9207   -2.2922 O   0  0  0  0  0  0  0  0  0  0  0  0
   19.4301   74.5408    0.1548 N   0  0  0  0  0  0  0  0  0  0  0  0
   17.5453   73.5993   -0.9441 N   0  0  0  0  0  0  0  0  0  0  0  0
   18.6391   73.3948   -0.0934 C   0  0  0  0  0  0  0  0  0  0  0  0
   19.0991   75.7582   -0.4302 C   0  0  0  0  0  0  0  0  0  0  0  0
   18.0534   75.9362   -1.2403 C   0  0  0  0  0  0  0  0  0  0  0  0
   17.1760   74.7893   -1.5510 C   0  0  0  0  0  0  0  0  0  0  0  0
   16.9802   72.8149   -1.1318 H   0  0  0  0  0  0  0  0  0  0  0  0
   20.2568   71.0928   -2.9773 O   0  0  0  0  0  0  0  0  0  0  0  0
   20.3528   72.4194   -3.8960 P   0  0  2  0  0  0  0  0  0  0  0  0
   21.8519   72.3448   -4.4998 O   0  0  0  0  0  0  0  0  0  0  0  0
   20.0408   73.6953   -3.1689 O   0  0  0  0  0  0  0  0  0  0  0  0
   19.3904   72.1146   -5.1553 O   0  0  0  0  0  0  0  0  0  0  0  0
   19.6606   71.7598   -7.4829 O   0  0  0  0  0  0  0  0  0  0  0  0
   16.5547   74.4790   -7.5861 O   0  0  0  0  0  0  0  0  0  0  0  0
   16.0466   71.7217   -8.2085 O   0  0  0  0  0  0  0  0  0  0  0  0
   18.6776   74.7849   -5.6421 O   0  0  0  0  0  0  0  0  0  0  0  0
   17.3160   73.3900   -7.0570 C   0  0  1  0  0  0  0  0  0  0  0  0
   17.3547   72.2773   -8.1063 C   0  0  1  0  0  0  0  0  0  0  0  0
   18.7281   73.8770   -6.7374 C   0  0  2  0  0  0  0  0  0  0  0  0
   18.3685   71.1905   -7.7242 C   0  0  1  0  0  0  0  0  0  0  0  0
   19.6683   72.7132   -6.4185 C   0  0  1  0  0  0  0  0  0  0  0  0
   15.6568   74.1765   -7.7906 H   0  0  0  0  0  0  0  0  0  0  0  0
   15.4160   72.4184   -8.4498 H   0  0  0  0  0  0  0  0  0  0  0  0
   18.0795   75.5171   -5.8565 H   0  0  0  0  0  0  0  0  0  0  0  0
   18.0960   70.7190  -10.0507 O   0  0  0  0  0  0  0  0  0  0  0  0
   18.5383   70.1522   -8.8311 C   0  0  0  0  0  0  0  0  0  0  0  0
   18.1985   70.0695  -10.7643 H   0  0  0  0  0  0  0  0  0  0  0  0
 25 28  1  0
 25 24  1  0
 25 26  1  6
 25 27  2  0
  1  4  1  0
  1 24  1  0
  1  2  1  1
  1  3  2  0
  6 11  1  0
  6 12  1  0
 29 36  1  0
 29 37  1  0
  9  7  1  1
  7 13  1  0
 10  8  1  1
  8 14  1  0
 37 28  1  1
  4  5  1  0
 33 30  1  6
 30 38  1  0
 34 31  1  1
 31 39  1  0
 35 32  1  1
 32 40  1  0
 41 42  1  0
 41 43  1  0
 15 19  2  0
 16 22  2  0
 12 17  1  6
 17 19  1  0
 17 20  1  0
 18 19  1  0
 18 22  1  0
 18 23  1  0
  9 10  1  0
  9 11  1  0
 10 12  1  0
 11  5  1  6
 33 34  1  0
 33 35  1  0
 34 36  1  0
 35 37  1  0
 36 42  1  6
 20 21  2  0
 21 22  1  0
M  CHG  2   2  -1  26  -1
M  END
>  <COMPND>  (174) 
    8629 

>  <AUTHOR>  (174) 
    GENERATED BY OPEN BABEL 3.1.1

>  <MASTER>  (174) 
        0    0    0    0    0    0    0    0   58    0   58    0

>  <minimizedAffinity>  (174) 
-6.68928

>  <CNNscore>  (174) 
0.4004303813

>  <CNNaffinity>  (174) 
3.9668095112

>  <CNN_VS>  (174) 
1.5884310007

>  <CNNaffinity_variance>  (174) 
0.2736653090

$$$$
175
     RDKit          3D

 43 45  0  0  0  0  0  0  0  0999 V2000
   19.2101   70.4527   -2.1724 P   0  0  2  0  0  0  0  0  0  0  0  0
   19.0174   71.8514   -1.3826 O   0  0  0  0  0  0  0  0  0  0  0  0
   19.3846   69.2482   -1.2948 O   0  0  0  0  0  0  0  0  0  0  0  0
   20.4207   70.7523   -3.2032 O   0  0  0  0  0  0  0  0  0  0  0  0
   20.9083   72.0787   -3.3062 C   0  0  0  0  0  0  0  0  0  0  0  0
   22.7684   73.0582   -2.1425 O   0  0  0  0  0  0  0  0  0  0  0  0
   24.3266   70.6374   -2.9804 O   0  0  0  0  0  0  0  0  0  0  0  0
   23.7007   70.0730   -0.3869 O   0  0  0  0  0  0  0  0  0  0  0  0
   22.9549   70.7411   -2.6025 C   0  0  1  0  0  0  0  0  0  0  0  0
   22.8349   70.9287   -1.1045 C   0  0  2  0  0  0  0  0  0  0  0  0
   22.4209   72.0658   -3.1328 C   0  0  1  0  0  0  0  0  0  0  0  0
   23.1950   72.3956   -0.9409 C   0  0  2  0  0  0  0  0  0  0  0  0
   24.6896   69.7989   -2.6530 H   0  0  0  0  0  0  0  0  0  0  0  0
   23.4306   69.1514   -0.5229 H   0  0  0  0  0  0  0  0  0  0  0  0
   23.7237   75.0032    0.0070 O   0  0  0  0  0  0  0  0  0  0  0  0
   20.6092   74.6059    3.3809 O   0  0  0  0  0  0  0  0  0  0  0  0
   22.5366   72.9991    0.1833 N   0  0  0  0  0  0  0  0  0  0  0  0
   22.1724   74.8033    1.6861 N   0  0  0  0  0  0  0  0  0  0  0  0
   22.8762   74.3140    0.5783 C   0  0  0  0  0  0  0  0  0  0  0  0
   21.5658   72.2888    0.8810 C   0  0  0  0  0  0  0  0  0  0  0  0
   20.9047   72.7693    1.9362 C   0  0  0  0  0  0  0  0  0  0  0  0
   21.1999   74.1357    2.4135 C   0  0  0  0  0  0  0  0  0  0  0  0
   22.3926   75.7172    1.9796 H   0  0  0  0  0  0  0  0  0  0  0  0
   17.9152   70.3993   -3.1384 O   0  0  0  0  0  0  0  0  0  0  0  0
   17.4971   69.3518   -4.2964 P   0  0  2  0  0  0  0  0  0  0  0  0
   15.9397   69.6979   -4.5651 O   0  0  0  0  0  0  0  0  0  0  0  0
   17.7615   67.9148   -3.9510 O   0  0  0  0  0  0  0  0  0  0  0  0
   18.2646   69.8745   -5.6165 O   0  0  0  0  0  0  0  0  0  0  0  0
   19.1701   72.0143   -6.0829 O   0  0  0  0  0  0  0  0  0  0  0  0
   17.8669   71.0096   -9.8702 O   0  0  0  0  0  0  0  0  0  0  0  0
   20.6804   71.0148   -9.2937 O   0  0  0  0  0  0  0  0  0  0  0  0
   16.2813   70.2872   -7.5586 O   0  0  0  0  0  0  0  0  0  0  0  0
   18.4140   70.7622   -8.5721 C   0  0  1  0  0  0  0  0  0  0  0  0
   19.6989   71.5804   -8.4293 C   0  0  1  0  0  0  0  0  0  0  0  0
   17.3933   71.1748   -7.5133 C   0  0  2  0  0  0  0  0  0  0  0  0
   20.1991   71.5775   -6.9785 C   0  0  1  0  0  0  0  0  0  0  0  0
   18.0063   71.1857   -6.1118 C   0  0  1  0  0  0  0  0  0  0  0  0
   18.5099   70.7493  -10.5471 H   0  0  0  0  0  0  0  0  0  0  0  0
   20.3519   71.0222  -10.2065 H   0  0  0  0  0  0  0  0  0  0  0  0
   15.9020   70.2896   -8.4507 H   0  0  0  0  0  0  0  0  0  0  0  0
   22.4643   72.0476   -7.5755 O   0  0  0  0  0  0  0  0  0  0  0  0
   21.3889   72.5144   -6.7819 C   0  0  0  0  0  0  0  0  0  0  0  0
   23.2286   72.6345   -7.4607 H   0  0  0  0  0  0  0  0  0  0  0  0
 25 28  1  0
 25 24  1  0
 25 26  1  6
 25 27  2  0
  1  4  1  0
  1 24  1  0
  1  2  1  1
  1  3  2  0
  6 11  1  0
  6 12  1  0
 29 36  1  0
 29 37  1  0
  9  7  1  1
  7 13  1  0
 10  8  1  1
  8 14  1  0
 37 28  1  6
  4  5  1  0
 33 30  1  6
 30 38  1  0
 34 31  1  6
 31 39  1  0
 35 32  1  1
 32 40  1  0
 41 42  1  0
 41 43  1  0
 15 19  2  0
 16 22  2  0
 12 17  1  1
 17 19  1  0
 17 20  1  0
 18 19  1  0
 18 22  1  0
 18 23  1  0
  9 10  1  0
  9 11  1  0
 10 12  1  0
 11  5  1  1
 33 34  1  0
 33 35  1  0
 34 36  1  0
 35 37  1  0
 36 42  1  6
 20 21  2  0
 21 22  1  0
M  CHG  2   2  -1  26  -1
M  END
>  <COMPND>  (175) 
    8629 

>  <AUTHOR>  (175) 
    GENERATED BY OPEN BABEL 3.1.1

>  <MASTER>  (175) 
        0    0    0    0    0    0    0    0   58    0   58    0

>  <minimizedAffinity>  (175) 
-8.41492

>  <CNNscore>  (175) 
0.3929762244

>  <CNNaffinity>  (175) 
4.1314187050

>  <CNN_VS>  (175) 
1.6235493422

>  <CNNaffinity_variance>  (175) 
0.2854712605

$$$$
176
     RDKit          3D

 43 45  0  0  0  0  0  0  0  0999 V2000
   20.9383   70.3510   -1.4400 P   0  0  2  0  0  0  0  0  0  0  0  0
   19.8183   69.2573   -1.0314 O   0  0  0  0  0  0  0  0  0  0  0  0
   22.1558   69.7900   -2.1141 O   0  0  0  0  0  0  0  0  0  0  0  0
   21.2070   71.1633   -0.0667 O   0  0  0  0  0  0  0  0  0  0  0  0
   20.7717   72.5090    0.0191 C   0  0  0  0  0  0  0  0  0  0  0  0
   21.1184   73.2794    2.2685 O   0  0  0  0  0  0  0  0  0  0  0  0
   18.1338   73.4998    2.4539 O   0  0  0  0  0  0  0  0  0  0  0  0
   18.8955   76.0838    2.0301 O   0  0  0  0  0  0  0  0  0  0  0  0
   18.9898   73.7540    1.3413 C   0  0  1  0  0  0  0  0  0  0  0  0
   19.7338   75.0584    1.5375 C   0  0  2  0  0  0  0  0  0  0  0  0
   20.1212   72.7341    1.3771 C   0  0  1  0  0  0  0  0  0  0  0  0
   20.8137   74.6593    2.5288 C   0  0  2  0  0  0  0  0  0  0  0  0
   17.4032   74.1387    2.4521 H   0  0  0  0  0  0  0  0  0  0  0  0
   18.2256   76.3021    1.3635 H   0  0  0  0  0  0  0  0  0  0  0  0
   22.9125   74.7419    4.4172 O   0  0  0  0  0  0  0  0  0  0  0  0
   25.3572   77.6820    1.8443 O   0  0  0  0  0  0  0  0  0  0  0  0
   22.0106   75.4377    2.3777 N   0  0  0  0  0  0  0  0  0  0  0  0
   24.1281   76.2057    3.1344 N   0  0  0  0  0  0  0  0  0  0  0  0
   23.0030   75.4099    3.3851 C   0  0  0  0  0  0  0  0  0  0  0  0
   22.1913   76.2172    1.2403 C   0  0  0  0  0  0  0  0  0  0  0  0
   23.2695   76.9714    1.0170 C   0  0  0  0  0  0  0  0  0  0  0  0
   24.3533   76.9986    2.0204 C   0  0  0  0  0  0  0  0  0  0  0  0
   24.8325   76.2023    3.8227 H   0  0  0  0  0  0  0  0  0  0  0  0
   20.1038   71.4103   -2.3313 O   0  0  0  0  0  0  0  0  0  0  0  0
   20.5555   72.3410   -3.5733 P   0  0  2  0  0  0  0  0  0  0  0  0
   21.9929   71.7282   -3.9926 O   0  0  0  0  0  0  0  0  0  0  0  0
   20.5746   73.8104   -3.2660 O   0  0  0  0  0  0  0  0  0  0  0  0
   19.5667   71.9224   -4.7783 O   0  0  0  0  0  0  0  0  0  0  0  0
   18.8396   69.6911   -5.1085 O   0  0  0  0  0  0  0  0  0  0  0  0
   18.4342   71.0955   -8.9704 O   0  0  0  0  0  0  0  0  0  0  0  0
   16.0891   70.5995   -7.3886 O   0  0  0  0  0  0  0  0  0  0  0  0
   20.6808   71.9436   -7.3539 O   0  0  0  0  0  0  0  0  0  0  0  0
   18.4041   71.1808   -7.5431 C   0  0  1  0  0  0  0  0  0  0  0  0
   17.3932   70.1569   -7.0228 C   0  0  1  0  0  0  0  0  0  0  0  0
   19.7992   70.8849   -6.9958 C   0  0  2  0  0  0  0  0  0  0  0  0
   17.4969   70.0008   -5.4997 C   0  0  1  0  0  0  0  0  0  0  0  0
   19.7826   70.6994   -5.4774 C   0  0  1  0  0  0  0  0  0  0  0  0
   17.5515   71.2828   -9.3243 H   0  0  0  0  0  0  0  0  0  0  0  0
   16.0371   70.6945   -8.3527 H   0  0  0  0  0  0  0  0  0  0  0  0
   20.6826   72.0508   -8.3174 H   0  0  0  0  0  0  0  0  0  0  0  0
   15.3019   69.3815   -4.7873 O   0  0  0  0  0  0  0  0  0  0  0  0
   16.6091   68.8727   -4.9787 C   0  0  0  0  0  0  0  0  0  0  0  0
   14.7256   68.6744   -4.4562 H   0  0  0  0  0  0  0  0  0  0  0  0
 25 28  1  0
 25 24  1  0
 25 26  1  6
 25 27  2  0
  1  4  1  0
  1 24  1  0
  1  2  1  1
  1  3  2  0
  6 11  1  0
  6 12  1  0
 29 36  1  0
 29 37  1  0
  9  7  1  1
  7 13  1  0
 10  8  1  1
  8 14  1  0
 37 28  1  1
  4  5  1  0
 33 30  1  6
 30 38  1  0
 34 31  1  1
 31 39  1  0
 35 32  1  1
 32 40  1  0
 41 42  1  0
 41 43  1  0
 15 19  2  0
 16 22  2  0
 12 17  1  6
 17 19  1  0
 17 20  1  0
 18 19  1  0
 18 22  1  0
 18 23  1  0
  9 10  1  0
  9 11  1  0
 10 12  1  0
 11  5  1  6
 33 34  1  0
 33 35  1  0
 34 36  1  0
 35 37  1  0
 36 42  1  6
 20 21  2  0
 21 22  1  0
M  CHG  2   2  -1  26  -1
M  END
>  <COMPND>  (176) 
    8629 

>  <AUTHOR>  (176) 
    GENERATED BY OPEN BABEL 3.1.1

>  <MASTER>  (176) 
        0    0    0    0    0    0    0    0   58    0   58    0

>  <minimizedAffinity>  (176) 
-7.46315

>  <CNNscore>  (176) 
0.3682070971

>  <CNNaffinity>  (176) 
4.1455721855

>  <CNN_VS>  (176) 
1.5264290571

>  <CNNaffinity_variance>  (176) 
0.0515473895

$$$$
177
     RDKit          3D

 43 45  0  0  0  0  0  0  0  0999 V2000
   18.7824   72.1760   -1.8573 P   0  0  2  0  0  0  0  0  0  0  0  0
   19.2311   73.7303   -1.8424 O   0  0  0  0  0  0  0  0  0  0  0  0
   17.3314   71.9380   -2.1566 O   0  0  0  0  0  0  0  0  0  0  0  0
   19.3097   71.6059   -0.4378 O   0  0  0  0  0  0  0  0  0  0  0  0
   19.3880   72.4965    0.6615 C   0  0  0  0  0  0  0  0  0  0  0  0
   21.6167   71.6095    0.5204 O   0  0  0  0  0  0  0  0  0  0  0  0
   22.1851   73.1430    3.0336 O   0  0  0  0  0  0  0  0  0  0  0  0
   23.2796   74.7326    1.1070 O   0  0  0  0  0  0  0  0  0  0  0  0
   21.3540   73.4968    1.9293 C   0  0  1  0  0  0  0  0  0  0  0  0
   22.2020   73.8956    0.7396 C   0  0  2  0  0  0  0  0  0  0  0  0
   20.6769   72.2280    1.4262 C   0  0  1  0  0  0  0  0  0  0  0  0
   22.6624   72.5464    0.2144 C   0  0  2  0  0  0  0  0  0  0  0  0
   22.6280   73.9374    3.3722 H   0  0  0  0  0  0  0  0  0  0  0  0
   22.9354   75.5782    1.4344 H   0  0  0  0  0  0  0  0  0  0  0  0
   23.9647   70.4876   -1.2151 O   0  0  0  0  0  0  0  0  0  0  0  0
   23.4389   72.6914   -5.2285 O   0  0  0  0  0  0  0  0  0  0  0  0
   22.8792   72.5561   -1.2049 N   0  0  0  0  0  0  0  0  0  0  0  0
   23.7017   71.5865   -3.2123 N   0  0  0  0  0  0  0  0  0  0  0  0
   23.5448   71.4731   -1.8251 C   0  0  0  0  0  0  0  0  0  0  0  0
   22.4335   73.6308   -1.9666 C   0  0  0  0  0  0  0  0  0  0  0  0
   22.5922   73.7243   -3.2885 C   0  0  0  0  0  0  0  0  0  0  0  0
   23.2775   72.6349   -4.0134 C   0  0  0  0  0  0  0  0  0  0  0  0
   24.1629   70.8440   -3.6659 H   0  0  0  0  0  0  0  0  0  0  0  0
   19.8057   71.5124   -2.9181 O   0  0  0  0  0  0  0  0  0  0  0  0
   20.0229   69.9738   -3.3637 P   0  0  2  0  0  0  0  0  0  0  0  0
   18.8395   69.1916   -2.5857 O   0  0  0  0  0  0  0  0  0  0  0  0
   21.4002   69.4426   -3.0905 O   0  0  0  0  0  0  0  0  0  0  0  0
   19.5862   69.9328   -4.9169 O   0  0  0  0  0  0  0  0  0  0  0  0
   19.9245   71.3694   -6.7712 O   0  0  0  0  0  0  0  0  0  0  0  0
   15.9367   70.4694   -7.3528 O   0  0  0  0  0  0  0  0  0  0  0  0
   17.9149   69.3399   -9.1018 O   0  0  0  0  0  0  0  0  0  0  0  0
   16.9512   70.8662   -4.6708 O   0  0  0  0  0  0  0  0  0  0  0  0
   17.2879   70.2087   -6.9633 C   0  0  1  0  0  0  0  0  0  0  0  0
   18.1852   70.3991   -8.1879 C   0  0  1  0  0  0  0  0  0  0  0  0
   17.6829   71.1786   -5.8513 C   0  0  2  0  0  0  0  0  0  0  0  0
   19.6682   70.3991   -7.7933 C   0  0  1  0  0  0  0  0  0  0  0  0
   19.1860   71.1343   -5.5707 C   0  0  1  0  0  0  0  0  0  0  0  0
   15.6795   69.8566   -8.0583 H   0  0  0  0  0  0  0  0  0  0  0  0
   16.9751   69.3508   -9.3425 H   0  0  0  0  0  0  0  0  0  0  0  0
   16.0012   70.8979   -4.8615 H   0  0  0  0  0  0  0  0  0  0  0  0
   21.7521   71.3497   -8.4735 O   0  0  0  0  0  0  0  0  0  0  0  0
   20.5740   70.7443   -8.9734 C   0  0  0  0  0  0  0  0  0  0  0  0
   22.3383   71.5746   -9.2135 H   0  0  0  0  0  0  0  0  0  0  0  0
 25 28  1  0
 25 24  1  0
 25 26  1  1
 25 27  2  0
  1  4  1  0
  1 24  1  0
  1  2  1  1
  1  3  2  0
  6 11  1  0
  6 12  1  0
 29 36  1  0
 29 37  1  0
  9  7  1  1
  7 13  1  0
 10  8  1  1
  8 14  1  0
 37 28  1  6
  4  5  1  0
 33 30  1  6
 30 38  1  0
 34 31  1  6
 31 39  1  0
 35 32  1  1
 32 40  1  0
 41 42  1  0
 41 43  1  0
 15 19  2  0
 16 22  2  0
 12 17  1  6
 17 19  1  0
 17 20  1  0
 18 19  1  0
 18 22  1  0
 18 23  1  0
  9 10  1  0
  9 11  1  0
 10 12  1  0
 11  5  1  6
 33 34  1  0
 33 35  1  0
 34 36  1  0
 35 37  1  0
 36 42  1  6
 20 21  2  0
 21 22  1  0
M  CHG  2   2  -1  26  -1
M  END
>  <COMPND>  (177) 
    8629 

>  <AUTHOR>  (177) 
    GENERATED BY OPEN BABEL 3.1.1

>  <MASTER>  (177) 
        0    0    0    0    0    0    0    0   58    0   58    0

>  <minimizedAffinity>  (177) 
-8.02496

>  <CNNscore>  (177) 
0.3647437394

>  <CNNaffinity>  (177) 
3.8266434669

>  <CNN_VS>  (177) 
1.3957442045

>  <CNNaffinity_variance>  (177) 
0.8860180974

$$$$
178
     RDKit          3D

 43 45  0  0  0  0  0  0  0  0999 V2000
   22.0074   72.5656   -4.3456 P   0  0  2  0  0  0  0  0  0  0  0  0
   23.4451   72.7836   -5.0548 O   0  0  0  0  0  0  0  0  0  0  0  0
   21.5125   73.7334   -3.5439 O   0  0  0  0  0  0  0  0  0  0  0  0
   22.1822   71.1782   -3.5317 O   0  0  0  0  0  0  0  0  0  0  0  0
   23.0314   71.1621   -2.3975 C   0  0  0  0  0  0  0  0  0  0  0  0
   22.7958   70.9618   -0.0146 O   0  0  0  0  0  0  0  0  0  0  0  0
   20.2530   69.4762   -0.5789 O   0  0  0  0  0  0  0  0  0  0  0  0
   19.3534   71.9629    0.0872 O   0  0  0  0  0  0  0  0  0  0  0  0
   20.8235   70.5845   -1.2729 C   0  0  1  0  0  0  0  0  0  0  0  0
   20.6482   71.8555   -0.4683 C   0  0  2  0  0  0  0  0  0  0  0  0
   22.3373   70.4118   -1.2690 C   0  0  1  0  0  0  0  0  0  0  0  0
   21.7283   71.7098    0.5902 C   0  0  2  0  0  0  0  0  0  0  0  0
   19.2865   69.5642   -0.5686 H   0  0  0  0  0  0  0  0  0  0  0  0
   18.7020   72.0535   -0.6257 H   0  0  0  0  0  0  0  0  0  0  0  0
   21.8255   72.5412    3.2878 O   0  0  0  0  0  0  0  0  0  0  0  0
   23.7047   76.5959    2.1614 O   0  0  0  0  0  0  0  0  0  0  0  0
   22.2383   72.9776    1.0304 N   0  0  0  0  0  0  0  0  0  0  0  0
   22.7613   74.5594    2.7248 N   0  0  0  0  0  0  0  0  0  0  0  0
   22.2414   73.2979    2.4080 C   0  0  0  0  0  0  0  0  0  0  0  0
   22.7287   73.8879    0.1004 C   0  0  0  0  0  0  0  0  0  0  0  0
   23.2199   75.0874    0.4187 C   0  0  0  0  0  0  0  0  0  0  0  0
   23.2592   75.4996    1.8366 C   0  0  0  0  0  0  0  0  0  0  0  0
   22.7731   74.8044    3.6785 H   0  0  0  0  0  0  0  0  0  0  0  0
   21.0531   72.1445   -5.5805 O   0  0  0  0  0  0  0  0  0  0  0  0
   19.6980   71.2643   -5.6228 P   0  0  2  0  0  0  0  0  0  0  0  0
   18.9085   71.7344   -4.2912 O   0  0  0  0  0  0  0  0  0  0  0  0
   19.9286   69.7837   -5.7156 O   0  0  0  0  0  0  0  0  0  0  0  0
   18.8447   71.8862   -6.8435 O   0  0  0  0  0  0  0  0  0  0  0  0
   18.5610   74.1651   -6.2581 O   0  0  0  0  0  0  0  0  0  0  0  0
   16.6290   74.1758   -9.9075 O   0  0  0  0  0  0  0  0  0  0  0  0
   19.1975   75.4366   -9.6591 O   0  0  0  0  0  0  0  0  0  0  0  0
   16.3530   71.9045   -8.1343 O   0  0  0  0  0  0  0  0  0  0  0  0
   17.6240   73.7760   -8.9611 C   0  0  1  0  0  0  0  0  0  0  0  0
   18.4156   75.0171   -8.5443 C   0  0  1  0  0  0  0  0  0  0  0  0
   16.9371   73.1449   -7.7514 C   0  0  2  0  0  0  0  0  0  0  0  0
   19.3189   74.7193   -7.3399 C   0  0  1  0  0  0  0  0  0  0  0  0
   17.9138   72.9358   -6.5928 C   0  0  1  0  0  0  0  0  0  0  0  0
   17.0586   74.5769  -10.6783 H   0  0  0  0  0  0  0  0  0  0  0  0
   18.6152   75.6210  -10.4129 H   0  0  0  0  0  0  0  0  0  0  0  0
   15.7366   72.0503   -8.8682 H   0  0  0  0  0  0  0  0  0  0  0  0
   20.3703   75.7560   -5.4614 O   0  0  0  0  0  0  0  0  0  0  0  0
   19.9981   75.9797   -6.8089 C   0  0  0  0  0  0  0  0  0  0  0  0
   20.8041   76.5499   -5.1104 H   0  0  0  0  0  0  0  0  0  0  0  0
 25 28  1  0
 25 24  1  0
 25 26  1  1
 25 27  2  0
  1  4  1  0
  1 24  1  0
  1  2  1  6
  1  3  2  0
  6 11  1  0
  6 12  1  0
 29 36  1  0
 29 37  1  0
  9  7  1  1
  7 13  1  0
 10  8  1  1
  8 14  1  0
 37 28  1  6
  4  5  1  0
 33 30  1  6
 30 38  1  0
 34 31  1  6
 31 39  1  0
 35 32  1  6
 32 40  1  0
 41 42  1  0
 41 43  1  0
 15 19  2  0
 16 22  2  0
 12 17  1  6
 17 19  1  0
 17 20  1  0
 18 19  1  0
 18 22  1  0
 18 23  1  0
  9 10  1  0
  9 11  1  0
 10 12  1  0
 11  5  1  6
 33 34  1  0
 33 35  1  0
 34 36  1  0
 35 37  1  0
 36 42  1  1
 20 21  2  0
 21 22  1  0
M  CHG  2   2  -1  26  -1
M  END
>  <COMPND>  (178) 
    8629 

>  <AUTHOR>  (178) 
    GENERATED BY OPEN BABEL 3.1.1

>  <MASTER>  (178) 
        0    0    0    0    0    0    0    0   58    0   58    0

>  <minimizedAffinity>  (178) 
-7.20570

>  <CNNscore>  (178) 
0.3567176759

>  <CNNaffinity>  (178) 
3.9221248627

>  <CNN_VS>  (178) 
1.3990912437

>  <CNNaffinity_variance>  (178) 
0.2195588052

$$$$
179
     RDKit          3D

 43 45  0  0  0  0  0  0  0  0999 V2000
   22.7747   72.3182   -2.6706 P   0  0  2  0  0  0  0  0  0  0  0  0
   23.3235   73.0377   -1.3295 O   0  0  0  0  0  0  0  0  0  0  0  0
   23.8383   71.7737   -3.5782 O   0  0  0  0  0  0  0  0  0  0  0  0
   21.7878   73.4198   -3.3264 O   0  0  0  0  0  0  0  0  0  0  0  0
   20.5790   72.9773   -3.9188 C   0  0  0  0  0  0  0  0  0  0  0  0
   20.2042   70.8830   -5.0356 O   0  0  0  0  0  0  0  0  0  0  0  0
   21.2191   72.2357   -7.5117 O   0  0  0  0  0  0  0  0  0  0  0  0
   18.5163   72.2894   -7.8704 O   0  0  0  0  0  0  0  0  0  0  0  0
   20.4302   72.7707   -6.4503 C   0  0  1  0  0  0  0  0  0  0  0  0
   19.0067   72.2626   -6.5454 C   0  0  2  0  0  0  0  0  0  0  0  0
   20.9066   72.1402   -5.1477 C   0  0  1  0  0  0  0  0  0  0  0  0
   19.1389   70.8510   -5.9994 C   0  0  2  0  0  0  0  0  0  0  0  0
   20.9334   72.6240   -8.3541 H   0  0  0  0  0  0  0  0  0  0  0  0
   18.4501   73.2088   -8.1723 H   0  0  0  0  0  0  0  0  0  0  0  0
   16.8537   69.9016   -7.3613 O   0  0  0  0  0  0  0  0  0  0  0  0
   14.5923   69.1447   -3.4174 O   0  0  0  0  0  0  0  0  0  0  0  0
   17.9390   70.3990   -5.3534 N   0  0  0  0  0  0  0  0  0  0  0  0
   15.7297   69.5253   -5.3964 N   0  0  0  0  0  0  0  0  0  0  0  0
   16.8481   69.9426   -6.1293 C   0  0  0  0  0  0  0  0  0  0  0  0
   17.8526   70.4110   -3.9654 C   0  0  0  0  0  0  0  0  0  0  0  0
   16.7784   70.0109   -3.2819 C   0  0  0  0  0  0  0  0  0  0  0  0
   15.5953   69.5194   -4.0171 C   0  0  0  0  0  0  0  0  0  0  0  0
   14.9574   69.2036   -5.9159 H   0  0  0  0  0  0  0  0  0  0  0  0
   21.7495   71.2091   -2.0944 O   0  0  0  0  0  0  0  0  0  0  0  0
   21.0032   71.0942   -0.6652 P   0  0  2  0  0  0  0  0  0  0  0  0
   22.2287   70.9977    0.3866 O   0  0  0  0  0  0  0  0  0  0  0  0
   20.0185   69.9646   -0.5742 O   0  0  0  0  0  0  0  0  0  0  0  0
   20.3677   72.5570   -0.4175 O   0  0  0  0  0  0  0  0  0  0  0  0
   19.7438   73.3425    1.7297 O   0  0  0  0  0  0  0  0  0  0  0  0
   17.2059   75.6421   -0.5772 O   0  0  0  0  0  0  0  0  0  0  0  0
   19.4676   76.8704    0.6971 O   0  0  0  0  0  0  0  0  0  0  0  0
   17.7281   72.8907   -1.3098 O   0  0  0  0  0  0  0  0  0  0  0  0
   18.4191   74.9502   -0.2694 C   0  0  1  0  0  0  0  0  0  0  0  0
   19.0074   75.5577    1.0056 C   0  0  1  0  0  0  0  0  0  0  0  0
   18.1106   73.4680   -0.0660 C   0  0  2  0  0  0  0  0  0  0  0  0
   20.1598   74.7009    1.5468 C   0  0  1  0  0  0  0  0  0  0  0  0
   19.3073   72.7174    0.5212 C   0  0  1  0  0  0  0  0  0  0  0  0
   17.3949   76.5837   -0.7080 H   0  0  0  0  0  0  0  0  0  0  0  0
   18.7305   77.4009    0.3559 H   0  0  0  0  0  0  0  0  0  0  0  0
   16.9696   73.3745   -1.6710 H   0  0  0  0  0  0  0  0  0  0  0  0
   19.5676   75.2105    3.8048 O   0  0  0  0  0  0  0  0  0  0  0  0
   20.6574   75.2012    2.9011 C   0  0  0  0  0  0  0  0  0  0  0  0
   19.8695   75.5265    4.6712 H   0  0  0  0  0  0  0  0  0  0  0  0
 25 28  1  0
 25 24  1  0
 25 26  1  1
 25 27  2  0
  1  4  1  0
  1 24  1  0
  1  2  1  1
  1  3  2  0
  6 11  1  0
  6 12  1  0
 29 36  1  0
 29 37  1  0
  9  7  1  6
  7 13  1  0
 10  8  1  6
  8 14  1  0
 37 28  1  6
  4  5  1  0
 33 30  1  1
 30 38  1  0
 34 31  1  6
 31 39  1  0
 35 32  1  6
 32 40  1  0
 41 42  1  0
 41 43  1  0
 15 19  2  0
 16 22  2  0
 12 17  1  1
 17 19  1  0
 17 20  1  0
 18 19  1  0
 18 22  1  0
 18 23  1  0
  9 10  1  0
  9 11  1  0
 10 12  1  0
 11  5  1  1
 33 34  1  0
 33 35  1  0
 34 36  1  0
 35 37  1  0
 36 42  1  1
 20 21  2  0
 21 22  1  0
M  CHG  2   2  -1  26  -1
M  END
>  <COMPND>  (179) 
    8629 

>  <AUTHOR>  (179) 
    GENERATED BY OPEN BABEL 3.1.1

>  <MASTER>  (179) 
        0    0    0    0    0    0    0    0   58    0   58    0

>  <minimizedAffinity>  (179) 
-6.84281

>  <CNNscore>  (179) 
0.3397253752

>  <CNNaffinity>  (179) 
3.9882111549

>  <CNN_VS>  (179) 
1.3548965454

>  <CNNaffinity_variance>  (179) 
0.2194313109

$$$$
180
     RDKit          3D

 43 45  0  0  0  0  0  0  0  0999 V2000
   22.3527   72.6726   -2.2805 P   0  0  2  0  0  0  0  0  0  0  0  0
   22.8445   73.8000   -1.2296 O   0  0  0  0  0  0  0  0  0  0  0  0
   23.3654   71.6094   -2.5895 O   0  0  0  0  0  0  0  0  0  0  0  0
   21.8228   73.5277   -3.5478 O   0  0  0  0  0  0  0  0  0  0  0  0
   20.6256   73.1191   -4.1861 C   0  0  0  0  0  0  0  0  0  0  0  0
   20.2869   70.9112   -5.0715 O   0  0  0  0  0  0  0  0  0  0  0  0
   21.2860   72.0060   -7.6781 O   0  0  0  0  0  0  0  0  0  0  0  0
   18.5835   71.9773   -8.0422 O   0  0  0  0  0  0  0  0  0  0  0  0
   20.4861   72.6393   -6.6808 C   0  0  1  0  0  0  0  0  0  0  0  0
   19.0711   72.1009   -6.7217 C   0  0  2  0  0  0  0  0  0  0  0  0
   20.9694   72.1601   -5.3176 C   0  0  1  0  0  0  0  0  0  0  0  0
   19.2245   70.7586   -6.0270 C   0  0  2  0  0  0  0  0  0  0  0  0
   20.9961   72.2968   -8.5575 H   0  0  0  0  0  0  0  0  0  0  0  0
   18.5034   72.8577   -8.4412 H   0  0  0  0  0  0  0  0  0  0  0  0
   16.8741   69.8472   -7.3009 O   0  0  0  0  0  0  0  0  0  0  0  0
   14.7040   69.2556   -3.2782 O   0  0  0  0  0  0  0  0  0  0  0  0
   18.0305   70.3594   -5.3368 N   0  0  0  0  0  0  0  0  0  0  0  0
   15.7955   69.5532   -5.2969 N   0  0  0  0  0  0  0  0  0  0  0  0
   16.9047   69.9181   -6.0706 C   0  0  0  0  0  0  0  0  0  0  0  0
   17.9840   70.4075   -3.9478 C   0  0  0  0  0  0  0  0  0  0  0  0
   16.9181   70.0573   -3.2250 C   0  0  0  0  0  0  0  0  0  0  0  0
   15.7003   69.5847   -3.9146 C   0  0  0  0  0  0  0  0  0  0  0  0
   14.9995   69.2429   -5.7865 H   0  0  0  0  0  0  0  0  0  0  0  0
   20.9854   72.1259   -1.6138 O   0  0  0  0  0  0  0  0  0  0  0  0
   20.7373   71.1428   -0.3549 P   0  0  2  0  0  0  0  0  0  0  0  0
   22.1704   71.1328    0.3960 O   0  0  0  0  0  0  0  0  0  0  0  0
   20.2244   69.7822   -0.7283 O   0  0  0  0  0  0  0  0  0  0  0  0
   19.7672   71.9764    0.6294 O   0  0  0  0  0  0  0  0  0  0  0  0
   18.1103   73.6487    0.3553 O   0  0  0  0  0  0  0  0  0  0  0  0
   20.1884   75.2917    3.5228 O   0  0  0  0  0  0  0  0  0  0  0  0
   17.5878   74.1576    3.9687 O   0  0  0  0  0  0  0  0  0  0  0  0
   21.6208   73.9358    1.4040 O   0  0  0  0  0  0  0  0  0  0  0  0
   19.6360   74.2330    2.7358 C   0  0  1  0  0  0  0  0  0  0  0  0
   18.1192   74.4229    2.6735 C   0  0  1  0  0  0  0  0  0  0  0  0
   20.2422   74.2840    1.3346 C   0  0  2  0  0  0  0  0  0  0  0  0
   17.4860   73.4877    1.6344 C   0  0  1  0  0  0  0  0  0  0  0  0
   19.5084   73.3533    0.3675 C   0  0  1  0  0  0  0  0  0  0  0  0
   19.8079   75.2647    4.4139 H   0  0  0  0  0  0  0  0  0  0  0  0
   17.9962   74.7543    4.6155 H   0  0  0  0  0  0  0  0  0  0  0  0
   22.0743   74.5324    2.0191 H   0  0  0  0  0  0  0  0  0  0  0  0
   15.8572   75.0159    0.7856 O   0  0  0  0  0  0  0  0  0  0  0  0
   15.9975   73.7698    1.4429 C   0  0  0  0  0  0  0  0  0  0  0  0
   14.9148   75.2084    0.6566 H   0  0  0  0  0  0  0  0  0  0  0  0
 25 28  1  0
 25 24  1  0
 25 26  1  1
 25 27  2  0
  1  4  1  0
  1 24  1  0
  1  2  1  1
  1  3  2  0
  6 11  1  0
  6 12  1  0
 29 36  1  0
 29 37  1  0
  9  7  1  6
  7 13  1  0
 10  8  1  6
  8 14  1  0
 37 28  1  1
  4  5  1  0
 33 30  1  1
 30 38  1  0
 34 31  1  1
 31 39  1  0
 35 32  1  1
 32 40  1  0
 41 42  1  0
 41 43  1  0
 15 19  2  0
 16 22  2  0
 12 17  1  1
 17 19  1  0
 17 20  1  0
 18 19  1  0
 18 22  1  0
 18 23  1  0
  9 10  1  0
  9 11  1  0
 10 12  1  0
 11  5  1  1
 33 34  1  0
 33 35  1  0
 34 36  1  0
 35 37  1  0
 36 42  1  6
 20 21  2  0
 21 22  1  0
M  CHG  2   2  -1  26  -1
M  END
>  <COMPND>  (180) 
    8629 

>  <AUTHOR>  (180) 
    GENERATED BY OPEN BABEL 3.1.1

>  <MASTER>  (180) 
        0    0    0    0    0    0    0    0   58    0   58    0

>  <minimizedAffinity>  (180) 
-7.13665

>  <CNNscore>  (180) 
0.3217400908

>  <CNNaffinity>  (180) 
4.0331048965

>  <CNN_VS>  (180) 
1.2976115942

>  <CNNaffinity_variance>  (180) 
0.2020339072

$$$$
181
     RDKit          3D

 43 45  0  0  0  0  0  0  0  0999 V2000
   20.4246   70.4248   -1.3796 P   0  0  2  0  0  0  0  0  0  0  0  0
   19.7772   69.0740   -0.7683 O   0  0  0  0  0  0  0  0  0  0  0  0
   19.8702   71.7024   -0.8211 O   0  0  0  0  0  0  0  0  0  0  0  0
   20.2786   70.2358   -2.9799 O   0  0  0  0  0  0  0  0  0  0  0  0
   20.2023   71.3935   -3.7933 C   0  0  0  0  0  0  0  0  0  0  0  0
   18.4765   72.3308   -5.1778 O   0  0  0  0  0  0  0  0  0  0  0  0
   16.5459   71.3871   -3.0866 O   0  0  0  0  0  0  0  0  0  0  0  0
   16.3071   69.4792   -5.0204 O   0  0  0  0  0  0  0  0  0  0  0  0
   17.7473   70.7719   -3.5487 C   0  0  1  0  0  0  0  0  0  0  0  0
   17.5355   70.1707   -4.9225 C   0  0  2  0  0  0  0  0  0  0  0  0
   18.7584   71.8747   -3.8366 C   0  0  1  0  0  0  0  0  0  0  0  0
   17.5878   71.3988   -5.8153 C   0  0  2  0  0  0  0  0  0  0  0  0
   15.8850   70.7024   -2.8958 H   0  0  0  0  0  0  0  0  0  0  0  0
   16.3232   68.7066   -4.4341 H   0  0  0  0  0  0  0  0  0  0  0  0
   15.9673   70.6913   -8.0179 O   0  0  0  0  0  0  0  0  0  0  0  0
   19.6160   70.2756  -10.8027 O   0  0  0  0  0  0  0  0  0  0  0  0
   18.0879   71.1008   -7.1278 N   0  0  0  0  0  0  0  0  0  0  0  0
   17.7854   70.4851   -9.4028 N   0  0  0  0  0  0  0  0  0  0  0  0
   17.1897   70.7554   -8.1642 C   0  0  0  0  0  0  0  0  0  0  0  0
   19.4551   71.1529   -7.3767 C   0  0  0  0  0  0  0  0  0  0  0  0
   20.0074   70.8911   -8.5632 C   0  0  0  0  0  0  0  0  0  0  0  0
   19.1386   70.5223   -9.6995 C   0  0  0  0  0  0  0  0  0  0  0  0
   17.1791   70.2419  -10.1397 H   0  0  0  0  0  0  0  0  0  0  0  0
   22.0079   70.2134   -1.1317 O   0  0  0  0  0  0  0  0  0  0  0  0
   23.0562   71.0287   -0.2102 P   0  0  2  0  0  0  0  0  0  0  0  0
   23.7544   72.0477   -1.2550 O   0  0  0  0  0  0  0  0  0  0  0  0
   24.0196   70.1581    0.5434 O   0  0  0  0  0  0  0  0  0  0  0  0
   22.1344   71.9695    0.7226 O   0  0  0  0  0  0  0  0  0  0  0  0
   22.6528   74.2496    0.3364 O   0  0  0  0  0  0  0  0  0  0  0  0
   20.0841   74.6903    3.5393 O   0  0  0  0  0  0  0  0  0  0  0  0
   19.2137   75.4469    0.9090 O   0  0  0  0  0  0  0  0  0  0  0  0
   21.9470   72.4756    3.4765 O   0  0  0  0  0  0  0  0  0  0  0  0
   20.5758   74.0942    2.3358 C   0  0  1  0  0  0  0  0  0  0  0  0
   20.5701   75.1583    1.2365 C   0  0  1  0  0  0  0  0  0  0  0  0
   21.9931   73.5782    2.5773 C   0  0  2  0  0  0  0  0  0  0  0  0
   21.3286   74.6744   -0.0068 C   0  0  1  0  0  0  0  0  0  0  0  0
   22.6754   73.1688    1.2708 C   0  0  1  0  0  0  0  0  0  0  0  0
   19.1843   75.0196    3.3928 H   0  0  0  0  0  0  0  0  0  0  0  0
   18.7459   75.7509    1.7027 H   0  0  0  0  0  0  0  0  0  0  0  0
   21.5132   72.7478    4.2997 H   0  0  0  0  0  0  0  0  0  0  0  0
   21.1822   77.0192   -0.4418 O   0  0  0  0  0  0  0  0  0  0  0  0
   21.4710   75.7761   -1.0546 C   0  0  0  0  0  0  0  0  0  0  0  0
   21.2692   77.7299   -1.0968 H   0  0  0  0  0  0  0  0  0  0  0  0
 25 28  1  0
 25 24  1  0
 25 26  1  6
 25 27  2  0
  1  4  1  0
  1 24  1  0
  1  2  1  1
  1  3  2  0
  6 11  1  0
  6 12  1  0
 29 36  1  0
 29 37  1  0
  9  7  1  6
  7 13  1  0
 10  8  1  1
  8 14  1  0
 37 28  1  6
  4  5  1  0
 33 30  1  1
 30 38  1  0
 34 31  1  6
 31 39  1  0
 35 32  1  1
 32 40  1  0
 41 42  1  0
 41 43  1  0
 15 19  2  0
 16 22  2  0
 12 17  1  6
 17 19  1  0
 17 20  1  0
 18 19  1  0
 18 22  1  0
 18 23  1  0
  9 10  1  0
  9 11  1  0
 10 12  1  0
 11  5  1  6
 33 34  1  0
 33 35  1  0
 34 36  1  0
 35 37  1  0
 36 42  1  6
 20 21  2  0
 21 22  1  0
M  CHG  2   2  -1  26  -1
M  END
>  <COMPND>  (181) 
    8629 

>  <AUTHOR>  (181) 
    GENERATED BY OPEN BABEL 3.1.1

>  <MASTER>  (181) 
        0    0    0    0    0    0    0    0   58    0   58    0

>  <minimizedAffinity>  (181) 
-7.63977

>  <CNNscore>  (181) 
0.7139602900

>  <CNNaffinity>  (181) 
4.4925498962

>  <CNN_VS>  (181) 
3.2075021267

>  <CNNaffinity_variance>  (181) 
0.0500137098

$$$$
182
     RDKit          3D

 43 45  0  0  0  0  0  0  0  0999 V2000
   20.2811   74.9944   -4.7278 P   0  0  2  0  0  0  0  0  0  0  0  0
   20.0404   74.7616   -3.1450 O   0  0  0  0  0  0  0  0  0  0  0  0
   19.8675   76.3426   -5.2402 O   0  0  0  0  0  0  0  0  0  0  0  0
   19.5551   73.7259   -5.4218 O   0  0  0  0  0  0  0  0  0  0  0  0
   18.6648   73.9621   -6.4986 C   0  0  0  0  0  0  0  0  0  0  0  0
   19.2738   71.6941   -7.0073 O   0  0  0  0  0  0  0  0  0  0  0  0
   18.2608   72.2407   -9.7761 O   0  0  0  0  0  0  0  0  0  0  0  0
   16.1964   70.8601   -8.6497 O   0  0  0  0  0  0  0  0  0  0  0  0
   17.7653   72.7132   -8.5245 C   0  0  1  0  0  0  0  0  0  0  0  0
   17.0398   71.6031   -7.7932 C   0  0  2  0  0  0  0  0  0  0  0  0
   18.9594   72.9672   -7.6128 C   0  0  1  0  0  0  0  0  0  0  0  0
   18.1933   70.7779   -7.2487 C   0  0  2  0  0  0  0  0  0  0  0  0
   17.5163   72.0717  -10.3754 H   0  0  0  0  0  0  0  0  0  0  0  0
   15.4786   71.4285   -8.9697 H   0  0  0  0  0  0  0  0  0  0  0  0
   20.0896   69.8349   -5.3798 O   0  0  0  0  0  0  0  0  0  0  0  0
   16.8007   68.2495   -2.5671 O   0  0  0  0  0  0  0  0  0  0  0  0
   17.8604   70.1153   -6.0193 N   0  0  0  0  0  0  0  0  0  0  0  0
   18.4505   69.0465   -3.9807 N   0  0  0  0  0  0  0  0  0  0  0  0
   18.8883   69.6799   -5.1508 C   0  0  0  0  0  0  0  0  0  0  0  0
   16.5272   69.9035   -5.6853 C   0  0  0  0  0  0  0  0  0  0  0  0
   16.1263   69.2967   -4.5662 C   0  0  0  0  0  0  0  0  0  0  0  0
   17.1374   68.8114   -3.6048 C   0  0  0  0  0  0  0  0  0  0  0  0
   19.1490   68.7343   -3.3608 H   0  0  0  0  0  0  0  0  0  0  0  0
   21.8518   74.6584   -4.9098 O   0  0  0  0  0  0  0  0  0  0  0  0
   22.6512   73.2548   -4.8482 P   0  0  2  0  0  0  0  0  0  0  0  0
   24.2034   73.7108   -4.8655 O   0  0  0  0  0  0  0  0  0  0  0  0
   22.2782   72.2861   -5.9328 O   0  0  0  0  0  0  0  0  0  0  0  0
   22.4033   72.7090   -3.3497 O   0  0  0  0  0  0  0  0  0  0  0  0
   23.2175   70.6333   -2.5463 O   0  0  0  0  0  0  0  0  0  0  0  0
   19.9194   71.0415   -0.0955 O   0  0  0  0  0  0  0  0  0  0  0  0
   22.5513   71.3941    0.9986 O   0  0  0  0  0  0  0  0  0  0  0  0
   19.7705   71.8667   -2.8661 O   0  0  0  0  0  0  0  0  0  0  0  0
   21.0428   71.4964   -0.8548 C   0  0  1  0  0  0  0  0  0  0  0  0
   22.3024   70.8374   -0.2892 C   0  0  1  0  0  0  0  0  0  0  0  0
   20.8449   71.1098   -2.3193 C   0  0  2  0  0  0  0  0  0  0  0  0
   23.5079   71.0641   -1.2115 C   0  0  1  0  0  0  0  0  0  0  0  0
   22.1183   71.3286   -3.1382 C   0  0  1  0  0  0  0  0  0  0  0  0
   20.0385   71.2843    0.8353 H   0  0  0  0  0  0  0  0  0  0  0  0
   21.7823   71.2446    1.5709 H   0  0  0  0  0  0  0  0  0  0  0  0
   18.9702   71.7194   -2.3391 H   0  0  0  0  0  0  0  0  0  0  0  0
   25.3256   69.6629   -1.8760 O   0  0  0  0  0  0  0  0  0  0  0  0
   24.7367   70.2845   -0.7485 C   0  0  0  0  0  0  0  0  0  0  0  0
   26.1092   69.1633   -1.5965 H   0  0  0  0  0  0  0  0  0  0  0  0
 25 28  1  0
 25 24  1  0
 25 26  1  1
 25 27  2  0
  1  4  1  0
  1 24  1  0
  1  2  1  1
  1  3  2  0
  6 11  1  0
  6 12  1  0
 29 36  1  0
 29 37  1  0
  9  7  1  6
  7 13  1  0
 10  8  1  6
  8 14  1  0
 37 28  1  1
  4  5  1  0
 33 30  1  1
 30 38  1  0
 34 31  1  1
 31 39  1  0
 35 32  1  6
 32 40  1  0
 41 42  1  0
 41 43  1  0
 15 19  2  0
 16 22  2  0
 12 17  1  1
 17 19  1  0
 17 20  1  0
 18 19  1  0
 18 22  1  0
 18 23  1  0
  9 10  1  0
  9 11  1  0
 10 12  1  0
 11  5  1  1
 33 34  1  0
 33 35  1  0
 34 36  1  0
 35 37  1  0
 36 42  1  1
 20 21  2  0
 21 22  1  0
M  CHG  2   2  -1  26  -1
M  END
>  <COMPND>  (182) 
    8629 

>  <AUTHOR>  (182) 
    GENERATED BY OPEN BABEL 3.1.1

>  <MASTER>  (182) 
        0    0    0    0    0    0    0    0   58    0   58    0

>  <minimizedAffinity>  (182) 
-7.52938

>  <CNNscore>  (182) 
0.5982626677

>  <CNNaffinity>  (182) 
4.5423750877

>  <CNN_VS>  (182) 
2.7175333500

>  <CNNaffinity_variance>  (182) 
0.4276378155

$$$$
183
     RDKit          3D

 43 45  0  0  0  0  0  0  0  0999 V2000
   20.3410   70.4327   -1.5429 P   0  0  2  0  0  0  0  0  0  0  0  0
   20.1137   69.1324   -0.6075 O   0  0  0  0  0  0  0  0  0  0  0  0
   19.7541   71.7068   -1.0105 O   0  0  0  0  0  0  0  0  0  0  0  0
   19.8037   69.9648   -2.9956 O   0  0  0  0  0  0  0  0  0  0  0  0
   18.6152   69.1960   -3.0615 C   0  0  0  0  0  0  0  0  0  0  0  0
   17.7264   71.0693   -4.2758 O   0  0  0  0  0  0  0  0  0  0  0  0
   15.0415   70.2282   -3.2392 O   0  0  0  0  0  0  0  0  0  0  0  0
   15.0236   69.2615   -5.7890 O   0  0  0  0  0  0  0  0  0  0  0  0
   16.1476   69.4208   -3.6390 C   0  0  1  0  0  0  0  0  0  0  0  0
   16.2740   69.4121   -5.1482 C   0  0  2  0  0  0  0  0  0  0  0  0
   17.4261   70.1341   -3.2169 C   0  0  1  0  0  0  0  0  0  0  0  0
   16.9104   70.7648   -5.4188 C   0  0  2  0  0  0  0  0  0  0  0  0
   14.2135   69.7930   -3.4979 H   0  0  0  0  0  0  0  0  0  0  0  0
   14.6597   68.3855   -5.5863 H   0  0  0  0  0  0  0  0  0  0  0  0
   15.9245   70.8228   -8.0650 O   0  0  0  0  0  0  0  0  0  0  0  0
   20.1745   70.7266   -9.8453 O   0  0  0  0  0  0  0  0  0  0  0  0
   17.7370   70.7561   -6.5928 N   0  0  0  0  0  0  0  0  0  0  0  0
   18.0415   70.7750   -8.9493 N   0  0  0  0  0  0  0  0  0  0  0  0
   17.1420   70.7864   -7.8756 C   0  0  0  0  0  0  0  0  0  0  0  0
   19.1213   70.7183   -6.4654 C   0  0  0  0  0  0  0  0  0  0  0  0
   19.9650   70.7066   -7.4994 C   0  0  0  0  0  0  0  0  0  0  0  0
   19.4248   70.7365   -8.8739 C   0  0  0  0  0  0  0  0  0  0  0  0
   17.6497   70.7952   -9.8526 H   0  0  0  0  0  0  0  0  0  0  0  0
   21.9450   70.4621   -1.7409 O   0  0  0  0  0  0  0  0  0  0  0  0
   22.9535   71.6854   -2.0559 P   0  0  2  0  0  0  0  0  0  0  0  0
   24.2405   70.9483   -2.7022 O   0  0  0  0  0  0  0  0  0  0  0  0
   23.2657   72.5473   -0.8669 O   0  0  0  0  0  0  0  0  0  0  0  0
   22.2708   72.4702   -3.2900 O   0  0  0  0  0  0  0  0  0  0  0  0
   22.7231   74.7959   -3.3464 O   0  0  0  0  0  0  0  0  0  0  0  0
   19.6282   74.6593   -6.0766 O   0  0  0  0  0  0  0  0  0  0  0  0
   22.3128   75.0995   -6.9972 O   0  0  0  0  0  0  0  0  0  0  0  0
   19.5455   72.9869   -3.7153 O   0  0  0  0  0  0  0  0  0  0  0  0
   20.7913   74.1745   -5.4002 C   0  0  1  0  0  0  0  0  0  0  0  0
   21.9288   75.1723   -5.6269 C   0  0  1  0  0  0  0  0  0  0  0  0
   20.4827   74.0405   -3.9102 C   0  0  2  0  0  0  0  0  0  0  0  0
   23.1267   74.8625   -4.7191 C   0  0  1  0  0  0  0  0  0  0  0  0
   21.7491   73.7817   -3.0921 C   0  0  1  0  0  0  0  0  0  0  0  0
   19.8174   74.7461   -7.0233 H   0  0  0  0  0  0  0  0  0  0  0  0
   21.5473   75.2967   -7.5596 H   0  0  0  0  0  0  0  0  0  0  0  0
   18.7482   73.1627   -4.2381 H   0  0  0  0  0  0  0  0  0  0  0  0
   24.7305   75.9324   -6.1304 O   0  0  0  0  0  0  0  0  0  0  0  0
   24.2090   75.9356   -4.8143 C   0  0  0  0  0  0  0  0  0  0  0  0
   25.4203   76.6107   -6.2059 H   0  0  0  0  0  0  0  0  0  0  0  0
 25 28  1  0
 25 24  1  0
 25 26  1  6
 25 27  2  0
  1  4  1  0
  1 24  1  0
  1  2  1  1
  1  3  2  0
  6 11  1  0
  6 12  1  0
 29 36  1  0
 29 37  1  0
  9  7  1  6
  7 13  1  0
 10  8  1  6
  8 14  1  0
 37 28  1  6
  4  5  1  0
 33 30  1  6
 30 38  1  0
 34 31  1  6
 31 39  1  0
 35 32  1  6
 32 40  1  0
 41 42  1  0
 41 43  1  0
 15 19  2  0
 16 22  2  0
 12 17  1  6
 17 19  1  0
 17 20  1  0
 18 19  1  0
 18 22  1  0
 18 23  1  0
  9 10  1  0
  9 11  1  0
 10 12  1  0
 11  5  1  6
 33 34  1  0
 33 35  1  0
 34 36  1  0
 35 37  1  0
 36 42  1  1
 20 21  2  0
 21 22  1  0
M  CHG  2   2  -1  26  -1
M  END
>  <COMPND>  (183) 
    8629 

>  <AUTHOR>  (183) 
    GENERATED BY OPEN BABEL 3.1.1

>  <MASTER>  (183) 
        0    0    0    0    0    0    0    0   58    0   58    0

>  <minimizedAffinity>  (183) 
-7.13833

>  <CNNscore>  (183) 
0.5868749619

>  <CNNaffinity>  (183) 
4.3636217117

>  <CNN_VS>  (183) 
2.5609002113

>  <CNNaffinity_variance>  (183) 
0.4127986431

$$$$
184
     RDKit          3D

 43 45  0  0  0  0  0  0  0  0999 V2000
   23.3138   70.7036   -2.3200 P   0  0  2  0  0  0  0  0  0  0  0  0
   23.6082   71.5227   -3.6837 O   0  0  0  0  0  0  0  0  0  0  0  0
   24.5166   70.0603   -1.6948 O   0  0  0  0  0  0  0  0  0  0  0  0
   22.1095   69.7005   -2.7217 O   0  0  0  0  0  0  0  0  0  0  0  0
   21.2877   70.0386   -3.8254 C   0  0  0  0  0  0  0  0  0  0  0  0
   19.1935   71.1015   -4.3337 O   0  0  0  0  0  0  0  0  0  0  0  0
   18.0111   69.3789   -2.1830 O   0  0  0  0  0  0  0  0  0  0  0  0
   17.2792   68.0713   -4.4614 O   0  0  0  0  0  0  0  0  0  0  0  0
   19.0426   69.0720   -3.1196 C   0  0  1  0  0  0  0  0  0  0  0  0
   18.4538   68.8559   -4.4981 C   0  0  2  0  0  0  0  0  0  0  0  0
   19.8795   70.3285   -3.3245 C   0  0  1  0  0  0  0  0  0  0  0  0
   18.1912   70.2807   -4.9554 C   0  0  2  0  0  0  0  0  0  0  0  0
   17.4635   68.5912   -2.0357 H   0  0  0  0  0  0  0  0  0  0  0  0
   17.4984   67.1743   -4.1648 H   0  0  0  0  0  0  0  0  0  0  0  0
   16.0303   69.9493   -6.7439 O   0  0  0  0  0  0  0  0  0  0  0  0
   18.6809   70.8582  -10.4030 O   0  0  0  0  0  0  0  0  0  0  0  0
   18.2883   70.4252   -6.3806 N   0  0  0  0  0  0  0  0  0  0  0  0
   17.3518   70.4023   -8.5643 N   0  0  0  0  0  0  0  0  0  0  0  0
   17.1433   70.2366   -7.1892 C   0  0  0  0  0  0  0  0  0  0  0  0
   19.5086   70.7508   -6.9625 C   0  0  0  0  0  0  0  0  0  0  0  0
   19.6911   70.9040   -8.2757 C   0  0  0  0  0  0  0  0  0  0  0  0
   18.5454   70.7244   -9.1907 C   0  0  0  0  0  0  0  0  0  0  0  0
   16.5684   70.2754   -9.1474 H   0  0  0  0  0  0  0  0  0  0  0  0
   22.5774   71.8008   -1.3888 O   0  0  0  0  0  0  0  0  0  0  0  0
   21.8047   71.6481    0.0228 P   0  0  2  0  0  0  0  0  0  0  0  0
   22.9696   71.1569    1.0323 O   0  0  0  0  0  0  0  0  0  0  0  0
   20.6063   70.7451   -0.0262 O   0  0  0  0  0  0  0  0  0  0  0  0
   21.4827   73.1627    0.4781 O   0  0  0  0  0  0  0  0  0  0  0  0
   22.7603   75.1577    0.4147 O   0  0  0  0  0  0  0  0  0  0  0  0
   20.9563   75.6462    4.0968 O   0  0  0  0  0  0  0  0  0  0  0  0
   20.1127   77.2638    1.8788 O   0  0  0  0  0  0  0  0  0  0  0  0
   21.8382   73.0197    3.2580 O   0  0  0  0  0  0  0  0  0  0  0  0
   21.0384   75.2297    2.7311 C   0  0  1  0  0  0  0  0  0  0  0  0
   21.2935   76.4663    1.8671 C   0  0  1  0  0  0  0  0  0  0  0  0
   22.1800   74.2257    2.5832 C   0  0  2  0  0  0  0  0  0  0  0  0
   21.6579   76.0721    0.4294 C   0  0  1  0  0  0  0  0  0  0  0  0
   22.4942   73.9401    1.1135 C   0  0  1  0  0  0  0  0  0  0  0  0
   20.2329   76.2835    4.1976 H   0  0  0  0  0  0  0  0  0  0  0  0
   19.8933   77.5055    2.7923 H   0  0  0  0  0  0  0  0  0  0  0  0
   21.6419   73.2139    4.1873 H   0  0  0  0  0  0  0  0  0  0  0  0
   22.8713   76.8298   -1.4843 O   0  0  0  0  0  0  0  0  0  0  0  0
   22.0696   77.2808   -0.4081 C   0  0  0  0  0  0  0  0  0  0  0  0
   23.1405   77.5884   -2.0263 H   0  0  0  0  0  0  0  0  0  0  0  0
 25 28  1  0
 25 24  1  0
 25 26  1  1
 25 27  2  0
  1  4  1  0
  1 24  1  0
  1  2  1  6
  1  3  2  0
  6 11  1  0
  6 12  1  0
 29 36  1  0
 29 37  1  0
  9  7  1  1
  7 13  1  0
 10  8  1  1
  8 14  1  0
 37 28  1  6
  4  5  1  0
 33 30  1  1
 30 38  1  0
 34 31  1  6
 31 39  1  0
 35 32  1  1
 32 40  1  0
 41 42  1  0
 41 43  1  0
 15 19  2  0
 16 22  2  0
 12 17  1  6
 17 19  1  0
 17 20  1  0
 18 19  1  0
 18 22  1  0
 18 23  1  0
  9 10  1  0
  9 11  1  0
 10 12  1  0
 11  5  1  6
 33 34  1  0
 33 35  1  0
 34 36  1  0
 35 37  1  0
 36 42  1  6
 20 21  2  0
 21 22  1  0
M  CHG  2   2  -1  26  -1
M  END
>  <COMPND>  (184) 
    8629 

>  <AUTHOR>  (184) 
    GENERATED BY OPEN BABEL 3.1.1

>  <MASTER>  (184) 
        0    0    0    0    0    0    0    0   58    0   58    0

>  <minimizedAffinity>  (184) 
-7.92976

>  <CNNscore>  (184) 
0.5782561898

>  <CNNaffinity>  (184) 
4.6153159142

>  <CNN_VS>  (184) 
2.6688349247

>  <CNNaffinity_variance>  (184) 
0.0685308576

$$$$
185
     RDKit          3D

 43 45  0  0  0  0  0  0  0  0999 V2000
   22.7328   72.8225   -4.0095 P   0  0  2  0  0  0  0  0  0  0  0  0
   24.1775   72.9257   -4.7302 O   0  0  0  0  0  0  0  0  0  0  0  0
   22.3830   73.9808   -3.1221 O   0  0  0  0  0  0  0  0  0  0  0  0
   22.7585   71.3717   -3.2936 O   0  0  0  0  0  0  0  0  0  0  0  0
   23.4742   71.2298   -2.0789 C   0  0  0  0  0  0  0  0  0  0  0  0
   22.8746   71.0747    0.2427 O   0  0  0  0  0  0  0  0  0  0  0  0
   20.3888   69.6783   -0.6855 O   0  0  0  0  0  0  0  0  0  0  0  0
   19.4987   72.2071   -0.1860 O   0  0  0  0  0  0  0  0  0  0  0  0
   21.1009   70.7534   -1.2956 C   0  0  1  0  0  0  0  0  0  0  0  0
   20.8571   72.0422   -0.5385 C   0  0  2  0  0  0  0  0  0  0  0  0
   22.5887   70.5235   -1.0614 C   0  0  1  0  0  0  0  0  0  0  0  0
   21.7588   71.8717    0.6723 C   0  0  2  0  0  0  0  0  0  0  0  0
   19.4361   69.8030   -0.8221 H   0  0  0  0  0  0  0  0  0  0  0  0
   18.9663   72.3115   -0.9899 H   0  0  0  0  0  0  0  0  0  0  0  0
   21.9087   72.5477    3.4107 O   0  0  0  0  0  0  0  0  0  0  0  0
   23.6466   76.7126    2.4756 O   0  0  0  0  0  0  0  0  0  0  0  0
   22.2468   73.1259    1.1727 N   0  0  0  0  0  0  0  0  0  0  0  0
   22.7741   74.6208    2.9428 N   0  0  0  0  0  0  0  0  0  0  0  0
   22.2795   73.3656    2.5662 C   0  0  0  0  0  0  0  0  0  0  0  0
   22.6866   74.1021    0.2854 C   0  0  0  0  0  0  0  0  0  0  0  0
   23.1542   75.2945    0.6606 C   0  0  0  0  0  0  0  0  0  0  0  0
   23.2217   75.6248    2.0988 C   0  0  0  0  0  0  0  0  0  0  0  0
   22.8059   74.8104    3.9087 H   0  0  0  0  0  0  0  0  0  0  0  0
   21.7225   72.5971   -5.2511 O   0  0  0  0  0  0  0  0  0  0  0  0
   20.4703   73.4757   -5.7737 P   0  0  2  0  0  0  0  0  0  0  0  0
   21.1730   74.8060   -6.3688 O   0  0  0  0  0  0  0  0  0  0  0  0
   19.4262   73.7417   -4.7282 O   0  0  0  0  0  0  0  0  0  0  0  0
   19.9298   72.6844   -7.0725 O   0  0  0  0  0  0  0  0  0  0  0  0
   19.1485   70.6828   -6.0726 O   0  0  0  0  0  0  0  0  0  0  0  0
   17.7572   70.0879   -9.9146 O   0  0  0  0  0  0  0  0  0  0  0  0
   15.9006   70.7171   -7.8158 O   0  0  0  0  0  0  0  0  0  0  0  0
   20.3422   71.3195   -9.4895 O   0  0  0  0  0  0  0  0  0  0  0  0
   18.0958   70.8542   -8.7555 C   0  0  1  0  0  0  0  0  0  0  0  0
   17.2561   70.3454   -7.5821 C   0  0  1  0  0  0  0  0  0  0  0  0
   19.5857   70.6859   -8.4635 C   0  0  2  0  0  0  0  0  0  0  0  0
   17.7494   70.9319   -6.2526 C   0  0  1  0  0  0  0  0  0  0  0  0
   19.9616   71.2597   -7.0962 C   0  0  1  0  0  0  0  0  0  0  0  0
   16.8126   70.1908  -10.1058 H   0  0  0  0  0  0  0  0  0  0  0  0
   15.6016   70.3409   -8.6586 H   0  0  0  0  0  0  0  0  0  0  0  0
   20.0952   70.9473  -10.3499 H   0  0  0  0  0  0  0  0  0  0  0  0
   16.8759   68.9293   -5.2854 O   0  0  0  0  0  0  0  0  0  0  0  0
   17.0292   70.3176   -5.0542 C   0  0  0  0  0  0  0  0  0  0  0  0
   16.4193   68.5249   -4.5306 H   0  0  0  0  0  0  0  0  0  0  0  0
 25 28  1  0
 25 24  1  0
 25 26  1  6
 25 27  2  0
  1  4  1  0
  1 24  1  0
  1  2  1  6
  1  3  2  0
  6 11  1  0
  6 12  1  0
 29 36  1  0
 29 37  1  0
  9  7  1  1
  7 13  1  0
 10  8  1  1
  8 14  1  0
 37 28  1  6
  4  5  1  0
 33 30  1  6
 30 38  1  0
 34 31  1  6
 31 39  1  0
 35 32  1  6
 32 40  1  0
 41 42  1  0
 41 43  1  0
 15 19  2  0
 16 22  2  0
 12 17  1  6
 17 19  1  0
 17 20  1  0
 18 19  1  0
 18 22  1  0
 18 23  1  0
  9 10  1  0
  9 11  1  0
 10 12  1  0
 11  5  1  6
 33 34  1  0
 33 35  1  0
 34 36  1  0
 35 37  1  0
 36 42  1  1
 20 21  2  0
 21 22  1  0
M  CHG  2   2  -1  26  -1
M  END
>  <COMPND>  (185) 
    8629 

>  <AUTHOR>  (185) 
    GENERATED BY OPEN BABEL 3.1.1

>  <MASTER>  (185) 
        0    0    0    0    0    0    0    0   58    0   58    0

>  <minimizedAffinity>  (185) 
-8.45929

>  <CNNscore>  (185) 
0.4959310293

>  <CNNaffinity>  (185) 
4.1569046974

>  <CNN_VS>  (185) 
2.0615379810

>  <CNNaffinity_variance>  (185) 
0.2063986361

$$$$
186
     RDKit          3D

 43 45  0  0  0  0  0  0  0  0999 V2000
   19.4021   74.1311   -3.5663 P   0  0  2  0  0  0  0  0  0  0  0  0
   17.9409   73.4368   -3.5519 O   0  0  0  0  0  0  0  0  0  0  0  0
   19.5599   75.2951   -2.6327 O   0  0  0  0  0  0  0  0  0  0  0  0
   19.6678   74.4445   -5.1312 O   0  0  0  0  0  0  0  0  0  0  0  0
   18.6824   74.0609   -6.0744 C   0  0  0  0  0  0  0  0  0  0  0  0
   19.6137   71.8705   -6.4043 O   0  0  0  0  0  0  0  0  0  0  0  0
   19.1618   72.3241   -9.3336 O   0  0  0  0  0  0  0  0  0  0  0  0
   17.0571   70.7318   -8.6470 O   0  0  0  0  0  0  0  0  0  0  0  0
   18.3661   72.7364   -8.2235 C   0  0  1  0  0  0  0  0  0  0  0  0
   17.6189   71.5534   -7.6440 C   0  0  2  0  0  0  0  0  0  0  0  0
   19.3069   73.1076   -7.0840 C   0  0  1  0  0  0  0  0  0  0  0  0
   18.7084   70.8490   -6.8536 C   0  0  2  0  0  0  0  0  0  0  0  0
   18.5829   72.0823  -10.0741 H   0  0  0  0  0  0  0  0  0  0  0  0
   16.3696   71.2247   -9.1215 H   0  0  0  0  0  0  0  0  0  0  0  0
   20.3046   69.5278   -4.9341 O   0  0  0  0  0  0  0  0  0  0  0  0
   16.6150   68.1955   -2.5147 O   0  0  0  0  0  0  0  0  0  0  0  0
   18.1912   70.1491   -5.7117 N   0  0  0  0  0  0  0  0  0  0  0  0
   18.4662   68.8656   -3.7309 N   0  0  0  0  0  0  0  0  0  0  0  0
   19.0783   69.5183   -4.8085 C   0  0  0  0  0  0  0  0  0  0  0  0
   16.8185   70.0935   -5.4962 C   0  0  0  0  0  0  0  0  0  0  0  0
   16.2506   69.4659   -4.4643 C   0  0  0  0  0  0  0  0  0  0  0  0
   17.1069   68.7813   -3.4743 C   0  0  0  0  0  0  0  0  0  0  0  0
   19.0644   68.4187   -3.0889 H   0  0  0  0  0  0  0  0  0  0  0  0
   20.3964   72.8915   -3.2701 O   0  0  0  0  0  0  0  0  0  0  0  0
   20.5506   71.9412   -1.9716 P   0  0  2  0  0  0  0  0  0  0  0  0
   22.0669   71.3901   -2.0931 O   0  0  0  0  0  0  0  0  0  0  0  0
   19.5075   70.8664   -1.8682 O   0  0  0  0  0  0  0  0  0  0  0  0
   20.5866   72.9609   -0.7210 O   0  0  0  0  0  0  0  0  0  0  0  0
   21.8350   74.8356    0.0163 O   0  0  0  0  0  0  0  0  0  0  0  0
   22.0672   72.5083    3.4194 O   0  0  0  0  0  0  0  0  0  0  0  0
   20.3976   74.8450    3.4108 O   0  0  0  0  0  0  0  0  0  0  0  0
   22.2202   71.2677    0.8084 O   0  0  0  0  0  0  0  0  0  0  0  0
   21.4491   73.0408    2.2447 C   0  0  1  0  0  0  0  0  0  0  0  0
   21.3581   74.5604    2.3976 C   0  0  1  0  0  0  0  0  0  0  0  0
   22.2932   72.6726    1.0260 C   0  0  2  0  0  0  0  0  0  0  0  0
   20.9539   75.2269    1.0757 C   0  0  1  0  0  0  0  0  0  0  0  0
   21.8386   73.4271   -0.2247 C   0  0  1  0  0  0  0  0  0  0  0  0
   21.5359   72.7381    4.1968 H   0  0  0  0  0  0  0  0  0  0  0  0
   20.6644   74.4180    4.2401 H   0  0  0  0  0  0  0  0  0  0  0  0
   22.5108   70.8014    1.6072 H   0  0  0  0  0  0  0  0  0  0  0  0
   21.7212   77.2388    0.0401 O   0  0  0  0  0  0  0  0  0  0  0  0
   21.0101   76.7505    1.1627 C   0  0  0  0  0  0  0  0  0  0  0  0
   21.7647   78.2074    0.0820 H   0  0  0  0  0  0  0  0  0  0  0  0
 25 28  1  0
 25 24  1  0
 25 26  1  6
 25 27  2  0
  1  4  1  0
  1 24  1  0
  1  2  1  6
  1  3  2  0
  6 11  1  0
  6 12  1  0
 29 36  1  0
 29 37  1  0
  9  7  1  6
  7 13  1  0
 10  8  1  6
  8 14  1  0
 37 28  1  1
  4  5  1  0
 33 30  1  1
 30 38  1  0
 34 31  1  1
 31 39  1  0
 35 32  1  6
 32 40  1  0
 41 42  1  0
 41 43  1  0
 15 19  2  0
 16 22  2  0
 12 17  1  1
 17 19  1  0
 17 20  1  0
 18 19  1  0
 18 22  1  0
 18 23  1  0
  9 10  1  0
  9 11  1  0
 10 12  1  0
 11  5  1  1
 33 34  1  0
 33 35  1  0
 34 36  1  0
 35 37  1  0
 36 42  1  1
 20 21  2  0
 21 22  1  0
M  CHG  2   2  -1  26  -1
M  END
>  <COMPND>  (186) 
    8629 

>  <AUTHOR>  (186) 
    GENERATED BY OPEN BABEL 3.1.1

>  <MASTER>  (186) 
        0    0    0    0    0    0    0    0   58    0   58    0

>  <minimizedAffinity>  (186) 
-6.95355

>  <CNNscore>  (186) 
0.4334467053

>  <CNNaffinity>  (186) 
4.1186800003

>  <CNN_VS>  (186) 
1.7852282524

>  <CNNaffinity_variance>  (186) 
0.2156310529

$$$$
187
     RDKit          3D

 43 45  0  0  0  0  0  0  0  0999 V2000
   19.4230   69.9977   -2.2385 P   0  0  2  0  0  0  0  0  0  0  0  0
   19.9275   69.3609   -0.8395 O   0  0  0  0  0  0  0  0  0  0  0  0
   20.5053   70.2506   -3.2465 O   0  0  0  0  0  0  0  0  0  0  0  0
   18.5653   71.2937   -1.7885 O   0  0  0  0  0  0  0  0  0  0  0  0
   18.8373   72.5353   -2.4148 C   0  0  0  0  0  0  0  0  0  0  0  0
   20.0122   72.9373   -0.3577 O   0  0  0  0  0  0  0  0  0  0  0  0
   19.7531   75.8552   -0.9978 O   0  0  0  0  0  0  0  0  0  0  0  0
   22.3240   75.3126   -1.7276 O   0  0  0  0  0  0  0  0  0  0  0  0
   19.9627   74.7533   -1.8794 C   0  0  1  0  0  0  0  0  0  0  0  0
   21.3883   74.2545   -1.7678 C   0  0  2  0  0  0  0  0  0  0  0  0
   19.1682   73.5678   -1.3459 C   0  0  1  0  0  0  0  0  0  0  0  0
   21.3447   73.4632   -0.4716 C   0  0  2  0  0  0  0  0  0  0  0  0
   20.2504   76.6246   -1.3181 H   0  0  0  0  0  0  0  0  0  0  0  0
   22.3142   75.7854   -2.5745 H   0  0  0  0  0  0  0  0  0  0  0  0
   22.1417   72.0611    1.8472 O   0  0  0  0  0  0  0  0  0  0  0  0
   24.9350   69.2977   -0.5617 O   0  0  0  0  0  0  0  0  0  0  0  0
   22.2786   72.3727   -0.4639 N   0  0  0  0  0  0  0  0  0  0  0  0
   23.5317   70.6862    0.6458 N   0  0  0  0  0  0  0  0  0  0  0  0
   22.6120   71.7370    0.7547 C   0  0  0  0  0  0  0  0  0  0  0  0
   22.8530   71.9439   -1.6556 C   0  0  0  0  0  0  0  0  0  0  0  0
   23.7294   70.9411   -1.7423 C   0  0  0  0  0  0  0  0  0  0  0  0
   24.1312   70.2239   -0.5150 C   0  0  0  0  0  0  0  0  0  0  0  0
   23.7793   70.2287    1.4820 H   0  0  0  0  0  0  0  0  0  0  0  0
   18.2837   68.9576   -2.7214 O   0  0  0  0  0  0  0  0  0  0  0  0
   17.2645   69.0064   -3.9751 P   0  0  2  0  0  0  0  0  0  0  0  0
   16.1863   70.1288   -3.5334 O   0  0  0  0  0  0  0  0  0  0  0  0
   16.6641   67.6775   -4.3321 O   0  0  0  0  0  0  0  0  0  0  0  0
   18.1104   69.6987   -5.1626 O   0  0  0  0  0  0  0  0  0  0  0  0
   18.8526   71.9069   -5.5985 O   0  0  0  0  0  0  0  0  0  0  0  0
   17.5409   70.8931   -9.3803 O   0  0  0  0  0  0  0  0  0  0  0  0
   20.3589   71.0854   -8.8611 O   0  0  0  0  0  0  0  0  0  0  0  0
   16.0610   70.0111   -7.0540 O   0  0  0  0  0  0  0  0  0  0  0  0
   18.1323   70.6575   -8.0997 C   0  0  1  0  0  0  0  0  0  0  0  0
   19.3592   71.5615   -7.9644 C   0  0  1  0  0  0  0  0  0  0  0  0
   17.1085   70.9741   -7.0112 C   0  0  2  0  0  0  0  0  0  0  0  0
   19.8900   71.5632   -6.5245 C   0  0  1  0  0  0  0  0  0  0  0  0
   17.7497   70.9986   -5.6225 C   0  0  1  0  0  0  0  0  0  0  0  0
   18.1856   70.6934  -10.0760 H   0  0  0  0  0  0  0  0  0  0  0  0
   20.0109   71.0889   -9.7667 H   0  0  0  0  0  0  0  0  0  0  0  0
   15.6630   70.0055   -7.9380 H   0  0  0  0  0  0  0  0  0  0  0  0
   20.7570   73.6979   -7.1572 O   0  0  0  0  0  0  0  0  0  0  0  0
   21.0149   72.5777   -6.3308 C   0  0  0  0  0  0  0  0  0  0  0  0
   21.4647   74.3521   -7.0441 H   0  0  0  0  0  0  0  0  0  0  0  0
 25 28  1  0
 25 24  1  0
 25 26  1  1
 25 27  2  0
  1  4  1  0
  1 24  1  0
  1  2  1  1
  1  3  2  0
  6 11  1  0
  6 12  1  0
 29 36  1  0
 29 37  1  0
  9  7  1  1
  7 13  1  0
 10  8  1  1
  8 14  1  0
 37 28  1  6
  4  5  1  0
 33 30  1  6
 30 38  1  0
 34 31  1  6
 31 39  1  0
 35 32  1  1
 32 40  1  0
 41 42  1  0
 41 43  1  0
 15 19  2  0
 16 22  2  0
 12 17  1  6
 17 19  1  0
 17 20  1  0
 18 19  1  0
 18 22  1  0
 18 23  1  0
  9 10  1  0
  9 11  1  0
 10 12  1  0
 11  5  1  6
 33 34  1  0
 33 35  1  0
 34 36  1  0
 35 37  1  0
 36 42  1  6
 20 21  2  0
 21 22  1  0
M  CHG  2   2  -1  26  -1
M  END
>  <COMPND>  (187) 
    8629 

>  <AUTHOR>  (187) 
    GENERATED BY OPEN BABEL 3.1.1

>  <MASTER>  (187) 
        0    0    0    0    0    0    0    0   58    0   58    0

>  <minimizedAffinity>  (187) 
-8.11087

>  <CNNscore>  (187) 
0.4295278490

>  <CNNaffinity>  (187) 
4.2569341660

>  <CNN_VS>  (187) 
1.8284717798

>  <CNNaffinity_variance>  (187) 
0.3316890597

$$$$
188
     RDKit          3D

 43 45  0  0  0  0  0  0  0  0999 V2000
   21.8407   71.1007   -2.8610 P   0  0  2  0  0  0  0  0  0  0  0  0
   20.3407   71.6806   -2.6845 O   0  0  0  0  0  0  0  0  0  0  0  0
   21.9519   69.6051   -2.8112 O   0  0  0  0  0  0  0  0  0  0  0  0
   22.7016   71.9066   -1.7532 O   0  0  0  0  0  0  0  0  0  0  0  0
   22.0895   72.9930   -1.0804 C   0  0  0  0  0  0  0  0  0  0  0  0
   22.5112   72.9492    1.2848 O   0  0  0  0  0  0  0  0  0  0  0  0
   19.6131   72.2470    1.5991 O   0  0  0  0  0  0  0  0  0  0  0  0
   19.6476   74.9085    2.1924 O   0  0  0  0  0  0  0  0  0  0  0  0
   20.2330   73.1184    0.6548 C   0  0  1  0  0  0  0  0  0  0  0  0
   20.6467   74.4117    1.3255 C   0  0  2  0  0  0  0  0  0  0  0  0
   21.5782   72.5143    0.2715 C   0  0  1  0  0  0  0  0  0  0  0  0
   21.9070   73.9944    2.0641 C   0  0  2  0  0  0  0  0  0  0  0  0
   18.7520   72.6117    1.8587 H   0  0  0  0  0  0  0  0  0  0  0  0
   18.8666   75.1603    1.6753 H   0  0  0  0  0  0  0  0  0  0  0  0
   23.2442   74.6493    4.4643 O   0  0  0  0  0  0  0  0  0  0  0  0
   25.4774   78.1574    2.4775 O   0  0  0  0  0  0  0  0  0  0  0  0
   22.8436   75.0738    2.2024 N   0  0  0  0  0  0  0  0  0  0  0  0
   24.3552   76.3955    3.4731 N   0  0  0  0  0  0  0  0  0  0  0  0
   23.4593   75.3189    3.4519 C   0  0  0  0  0  0  0  0  0  0  0  0
   23.1434   75.8758    1.1066 C   0  0  0  0  0  0  0  0  0  0  0  0
   23.9991   76.8993    1.1436 C   0  0  0  0  0  0  0  0  0  0  0  0
   24.6853   77.2226    2.4112 C   0  0  0  0  0  0  0  0  0  0  0  0
   24.7959   76.5853    4.3330 H   0  0  0  0  0  0  0  0  0  0  0  0
   22.3259   71.7653   -4.2523 O   0  0  0  0  0  0  0  0  0  0  0  0
   21.6052   72.8361   -5.2255 P   0  0  2  0  0  0  0  0  0  0  0  0
   22.4755   72.7452   -6.5863 O   0  0  0  0  0  0  0  0  0  0  0  0
   21.5000   74.2183   -4.6488 O   0  0  0  0  0  0  0  0  0  0  0  0
   20.1894   72.1585   -5.6011 O   0  0  0  0  0  0  0  0  0  0  0  0
   19.8970   69.8084   -5.5102 O   0  0  0  0  0  0  0  0  0  0  0  0
   16.8707   70.7479   -8.1578 O   0  0  0  0  0  0  0  0  0  0  0  0
   16.2139   69.9589   -5.4756 O   0  0  0  0  0  0  0  0  0  0  0  0
   19.3962   72.1560   -8.2929 O   0  0  0  0  0  0  0  0  0  0  0  0
   17.7298   70.9566   -7.0336 C   0  0  1  0  0  0  0  0  0  0  0  0
   17.5120   69.8102   -6.0442 C   0  0  1  0  0  0  0  0  0  0  0  0
   19.1801   70.9854   -7.5123 C   0  0  2  0  0  0  0  0  0  0  0  0
   18.5815   69.8175   -4.9436 C   0  0  1  0  0  0  0  0  0  0  0  0
   20.1627   70.9405   -6.3407 C   0  0  1  0  0  0  0  0  0  0  0  0
   15.9482   70.7291   -7.8607 H   0  0  0  0  0  0  0  0  0  0  0  0
   15.5480   69.9532   -6.1810 H   0  0  0  0  0  0  0  0  0  0  0  0
   18.7684   72.1725   -9.0314 H   0  0  0  0  0  0  0  0  0  0  0  0
   17.4141   68.7975   -3.1254 O   0  0  0  0  0  0  0  0  0  0  0  0
   18.4777   68.5929   -4.0372 C   0  0  0  0  0  0  0  0  0  0  0  0
   17.3361   68.0258   -2.5422 H   0  0  0  0  0  0  0  0  0  0  0  0
 25 28  1  0
 25 24  1  0
 25 26  1  6
 25 27  2  0
  1  4  1  0
  1 24  1  0
  1  2  1  1
  1  3  2  0
  6 11  1  0
  6 12  1  0
 29 36  1  0
 29 37  1  0
  9  7  1  1
  7 13  1  0
 10  8  1  1
  8 14  1  0
 37 28  1  1
  4  5  1  0
 33 30  1  6
 30 38  1  0
 34 31  1  1
 31 39  1  0
 35 32  1  1
 32 40  1  0
 41 42  1  0
 41 43  1  0
 15 19  2  0
 16 22  2  0
 12 17  1  6
 17 19  1  0
 17 20  1  0
 18 19  1  0
 18 22  1  0
 18 23  1  0
  9 10  1  0
  9 11  1  0
 10 12  1  0
 11  5  1  6
 33 34  1  0
 33 35  1  0
 34 36  1  0
 35 37  1  0
 36 42  1  1
 20 21  2  0
 21 22  1  0
M  CHG  2   2  -1  26  -1
M  END
>  <COMPND>  (188) 
    8629 

>  <AUTHOR>  (188) 
    GENERATED BY OPEN BABEL 3.1.1

>  <MASTER>  (188) 
        0    0    0    0    0    0    0    0   58    0   58    0

>  <minimizedAffinity>  (188) 
-6.83856

>  <CNNscore>  (188) 
0.3922000825

>  <CNNaffinity>  (188) 
4.0639243126

>  <CNN_VS>  (188) 
1.5938714743

>  <CNNaffinity_variance>  (188) 
0.0491800159

$$$$
189
     RDKit          3D

 43 45  0  0  0  0  0  0  0  0999 V2000
   20.5653   75.1731   -2.9770 P   0  0  2  0  0  0  0  0  0  0  0  0
   21.8818   74.4191   -2.4152 O   0  0  0  0  0  0  0  0  0  0  0  0
   20.7848   76.5925   -3.4112 O   0  0  0  0  0  0  0  0  0  0  0  0
   19.4662   74.9574   -1.8095 O   0  0  0  0  0  0  0  0  0  0  0  0
   19.8367   75.2404   -0.4714 C   0  0  0  0  0  0  0  0  0  0  0  0
   19.3810   72.9141   -0.0786 O   0  0  0  0  0  0  0  0  0  0  0  0
   18.7505   73.7066    2.7436 O   0  0  0  0  0  0  0  0  0  0  0  0
   21.2717   72.6900    2.9608 O   0  0  0  0  0  0  0  0  0  0  0  0
   19.7427   74.2273    1.8605 C   0  0  1  0  0  0  0  0  0  0  0  0
   20.8882   73.2466    1.7198 C   0  0  2  0  0  0  0  0  0  0  0  0
   19.1589   74.2385    0.4533 C   0  0  1  0  0  0  0  0  0  0  0  0
   20.3038   72.2136    0.7714 C   0  0  2  0  0  0  0  0  0  0  0  0
   19.1003   73.6900    3.6488 H   0  0  0  0  0  0  0  0  0  0  0  0
   21.6370   73.3864    3.5285 H   0  0  0  0  0  0  0  0  0  0  0  0
   19.9196   69.8204   -0.6788 O   0  0  0  0  0  0  0  0  0  0  0  0
   24.2245   69.9100   -2.3224 O   0  0  0  0  0  0  0  0  0  0  0  0
   21.3072   71.5893   -0.0441 N   0  0  0  0  0  0  0  0  0  0  0  0
   22.0634   69.8671   -1.4961 N   0  0  0  0  0  0  0  0  0  0  0  0
   21.0126   70.3882   -0.7304 C   0  0  0  0  0  0  0  0  0  0  0  0
   22.5667   72.1678   -0.1574 C   0  0  0  0  0  0  0  0  0  0  0  0
   23.5582   71.6576   -0.8908 C   0  0  0  0  0  0  0  0  0  0  0  0
   23.3328   70.4043   -1.6394 C   0  0  0  0  0  0  0  0  0  0  0  0
   21.8814   69.0305   -1.9828 H   0  0  0  0  0  0  0  0  0  0  0  0
   20.0513   74.1835   -4.1473 O   0  0  0  0  0  0  0  0  0  0  0  0
   20.0467   72.5701   -4.2472 P   0  0  2  0  0  0  0  0  0  0  0  0
   18.8449   72.1402   -3.2531 O   0  0  0  0  0  0  0  0  0  0  0  0
   21.3683   71.9304   -3.9340 O   0  0  0  0  0  0  0  0  0  0  0  0
   19.4846   72.2541   -5.7268 O   0  0  0  0  0  0  0  0  0  0  0  0
   18.5503   70.0761   -5.7329 O   0  0  0  0  0  0  0  0  0  0  0  0
   18.1884   70.9606   -9.7501 O   0  0  0  0  0  0  0  0  0  0  0  0
   15.8437   70.9104   -8.0924 O   0  0  0  0  0  0  0  0  0  0  0  0
   20.5383   71.8125   -8.2900 O   0  0  0  0  0  0  0  0  0  0  0  0
   18.1979   71.2462   -8.3488 C   0  0  1  0  0  0  0  0  0  0  0  0
   17.1100   70.4035   -7.6802 C   0  0  1  0  0  0  0  0  0  0  0  0
   19.5722   70.9008   -7.7783 C   0  0  2  0  0  0  0  0  0  0  0  0
   17.2330   70.4520   -6.1512 C   0  0  1  0  0  0  0  0  0  0  0  0
   19.5727   70.9309   -6.2488 C   0  0  1  0  0  0  0  0  0  0  0  0
   17.3187   71.1782  -10.1186 H   0  0  0  0  0  0  0  0  0  0  0  0
   15.7791   70.8746   -9.0597 H   0  0  0  0  0  0  0  0  0  0  0  0
   20.5283   71.7838   -9.2590 H   0  0  0  0  0  0  0  0  0  0  0  0
   17.0044   68.5008   -4.7913 O   0  0  0  0  0  0  0  0  0  0  0  0
   16.2581   69.4952   -5.4684 C   0  0  0  0  0  0  0  0  0  0  0  0
   16.3970   67.8848   -4.3517 H   0  0  0  0  0  0  0  0  0  0  0  0
 25 28  1  0
 25 24  1  0
 25 26  1  1
 25 27  2  0
  1  4  1  0
  1 24  1  0
  1  2  1  1
  1  3  2  0
  6 11  1  0
  6 12  1  0
 29 36  1  0
 29 37  1  0
  9  7  1  1
  7 13  1  0
 10  8  1  1
  8 14  1  0
 37 28  1  6
  4  5  1  0
 33 30  1  6
 30 38  1  0
 34 31  1  1
 31 39  1  0
 35 32  1  6
 32 40  1  0
 41 42  1  0
 41 43  1  0
 15 19  2  0
 16 22  2  0
 12 17  1  6
 17 19  1  0
 17 20  1  0
 18 19  1  0
 18 22  1  0
 18 23  1  0
  9 10  1  0
  9 11  1  0
 10 12  1  0
 11  5  1  6
 33 34  1  0
 33 35  1  0
 34 36  1  0
 35 37  1  0
 36 42  1  1
 20 21  2  0
 21 22  1  0
M  CHG  2   2  -1  26  -1
M  END
>  <COMPND>  (189) 
    8629 

>  <AUTHOR>  (189) 
    GENERATED BY OPEN BABEL 3.1.1

>  <MASTER>  (189) 
        0    0    0    0    0    0    0    0   58    0   58    0

>  <minimizedAffinity>  (189) 
-7.78022

>  <CNNscore>  (189) 
0.3819238842

>  <CNNaffinity>  (189) 
3.9122414589

>  <CNN_VS>  (189) 
1.4941784143

>  <CNNaffinity_variance>  (189) 
0.8072260022

$$$$
190
     RDKit          3D

 43 45  0  0  0  0  0  0  0  0999 V2000
   19.7618   75.4408   -2.7600 P   0  0  2  0  0  0  0  0  0  0  0  0
   21.0600   75.6873   -3.6933 O   0  0  0  0  0  0  0  0  0  0  0  0
   18.9106   76.6539   -2.5249 O   0  0  0  0  0  0  0  0  0  0  0  0
   20.3649   74.7378   -1.4334 O   0  0  0  0  0  0  0  0  0  0  0  0
   20.1942   75.3886   -0.1863 C   0  0  0  0  0  0  0  0  0  0  0  0
   19.6871   73.0777    0.2336 O   0  0  0  0  0  0  0  0  0  0  0  0
   19.5337   73.8318    3.1316 O   0  0  0  0  0  0  0  0  0  0  0  0
   22.0042   72.6925    2.9438 O   0  0  0  0  0  0  0  0  0  0  0  0
   20.4050   74.3259    2.1157 C   0  0  1  0  0  0  0  0  0  0  0  0
   21.4650   73.2959    1.7854 C   0  0  2  0  0  0  0  0  0  0  0  0
   19.6153   74.3981    0.8147 C   0  0  1  0  0  0  0  0  0  0  0  0
   20.6921   72.3144    0.9208 C   0  0  2  0  0  0  0  0  0  0  0  0
   20.0157   73.7772    3.9722 H   0  0  0  0  0  0  0  0  0  0  0  0
   22.4862   73.3571    3.4603 H   0  0  0  0  0  0  0  0  0  0  0  0
   19.9866   69.9574   -0.4665 O   0  0  0  0  0  0  0  0  0  0  0  0
   23.9752   69.9037   -2.7749 O   0  0  0  0  0  0  0  0  0  0  0  0
   21.5271   71.6631   -0.0486 N   0  0  0  0  0  0  0  0  0  0  0  0
   21.9731   69.9327   -1.6149 N   0  0  0  0  0  0  0  0  0  0  0  0
   21.0793   70.4834   -0.6877 C   0  0  0  0  0  0  0  0  0  0  0  0
   22.7747   72.1943   -0.3573 C   0  0  0  0  0  0  0  0  0  0  0  0
   23.6157   71.6562   -1.2429 C   0  0  0  0  0  0  0  0  0  0  0  0
   23.2241   70.4226   -1.9549 C   0  0  0  0  0  0  0  0  0  0  0  0
   21.6827   69.1103   -2.0722 H   0  0  0  0  0  0  0  0  0  0  0  0
   19.0049   74.2220   -3.5048 O   0  0  0  0  0  0  0  0  0  0  0  0
   19.4193   72.6708   -3.6916 P   0  0  2  0  0  0  0  0  0  0  0  0
   18.4612   71.9014   -2.6391 O   0  0  0  0  0  0  0  0  0  0  0  0
   20.8844   72.3989   -3.5084 O   0  0  0  0  0  0  0  0  0  0  0  0
   18.8400   72.2649   -5.1423 O   0  0  0  0  0  0  0  0  0  0  0  0
   20.0211   72.2614   -7.1969 O   0  0  0  0  0  0  0  0  0  0  0  0
   16.2520   73.1911   -8.6042 O   0  0  0  0  0  0  0  0  0  0  0  0
   17.3416   70.5782   -9.0879 O   0  0  0  0  0  0  0  0  0  0  0  0
   17.1750   74.3110   -6.0996 O   0  0  0  0  0  0  0  0  0  0  0  0
   17.2017   72.5532   -7.7459 C   0  0  1  0  0  0  0  0  0  0  0  0
   18.1126   71.6757   -8.6068 C   0  0  1  0  0  0  0  0  0  0  0  0
   18.0153   73.6227   -7.0196 C   0  0  2  0  0  0  0  0  0  0  0  0
   19.3172   71.1703   -7.8015 C   0  0  1  0  0  0  0  0  0  0  0  0
   19.2176   73.0197   -6.2907 C   0  0  1  0  0  0  0  0  0  0  0  0
   15.7318   72.5175   -9.0681 H   0  0  0  0  0  0  0  0  0  0  0  0
   16.5839   70.9110   -9.5942 H   0  0  0  0  0  0  0  0  0  0  0  0
   16.4179   74.6883   -6.5732 H   0  0  0  0  0  0  0  0  0  0  0  0
   21.5265   71.1641   -8.7115 O   0  0  0  0  0  0  0  0  0  0  0  0
   20.3198   70.4244   -8.6795 C   0  0  0  0  0  0  0  0  0  0  0  0
   22.1741   70.7012   -9.2664 H   0  0  0  0  0  0  0  0  0  0  0  0
 25 28  1  0
 25 24  1  0
 25 26  1  1
 25 27  2  0
  1  4  1  0
  1 24  1  0
  1  2  1  6
  1  3  2  0
  6 11  1  0
  6 12  1  0
 29 36  1  0
 29 37  1  0
  9  7  1  1
  7 13  1  0
 10  8  1  1
  8 14  1  0
 37 28  1  1
  4  5  1  0
 33 30  1  6
 30 38  1  0
 34 31  1  1
 31 39  1  0
 35 32  1  1
 32 40  1  0
 41 42  1  0
 41 43  1  0
 15 19  2  0
 16 22  2  0
 12 17  1  6
 17 19  1  0
 17 20  1  0
 18 19  1  0
 18 22  1  0
 18 23  1  0
  9 10  1  0
  9 11  1  0
 10 12  1  0
 11  5  1  6
 33 34  1  0
 33 35  1  0
 34 36  1  0
 35 37  1  0
 36 42  1  6
 20 21  2  0
 21 22  1  0
M  CHG  2   2  -1  26  -1
M  END
>  <COMPND>  (190) 
    8629 

>  <AUTHOR>  (190) 
    GENERATED BY OPEN BABEL 3.1.1

>  <MASTER>  (190) 
        0    0    0    0    0    0    0    0   58    0   58    0

>  <minimizedAffinity>  (190) 
-7.38477

>  <CNNscore>  (190) 
0.3735068738

>  <CNNaffinity>  (190) 
3.9138488770

>  <CNN_VS>  (190) 
1.4618494511

>  <CNNaffinity_variance>  (190) 
0.6017189622

$$$$
191
     RDKit          3D

 43 45  0  0  0  0  0  0  0  0999 V2000
   20.0941   70.8393   -1.1274 P   0  0  2  0  0  0  0  0  0  0  0  0
   19.9181   69.2362   -0.9990 O   0  0  0  0  0  0  0  0  0  0  0  0
   18.8111   71.6162   -1.1714 O   0  0  0  0  0  0  0  0  0  0  0  0
   21.0703   71.0218   -2.4047 O   0  0  0  0  0  0  0  0  0  0  0  0
   20.8136   72.0853   -3.3053 C   0  0  0  0  0  0  0  0  0  0  0  0
   20.2722   70.4491   -4.9797 O   0  0  0  0  0  0  0  0  0  0  0  0
   21.4711   72.3537   -6.9610 O   0  0  0  0  0  0  0  0  0  0  0  0
   18.7951   72.7706   -7.2801 O   0  0  0  0  0  0  0  0  0  0  0  0
   20.7095   72.6335   -5.7876 C   0  0  1  0  0  0  0  0  0  0  0  0
   19.2475   72.3150   -6.0213 C   0  0  2  0  0  0  0  0  0  0  0  0
   21.0919   71.6108   -4.7250 C   0  0  1  0  0  0  0  0  0  0  0  0
   19.2330   70.8001   -5.9080 C   0  0  2  0  0  0  0  0  0  0  0  0
   21.2443   72.9943   -7.6539 H   0  0  0  0  0  0  0  0  0  0  0  0
   18.8230   73.7398   -7.3025 H   0  0  0  0  0  0  0  0  0  0  0  0
   17.0123   70.1797   -7.5394 O   0  0  0  0  0  0  0  0  0  0  0  0
   14.4775   68.8879   -3.9134 O   0  0  0  0  0  0  0  0  0  0  0  0
   17.9802   70.2996   -5.4167 N   0  0  0  0  0  0  0  0  0  0  0  0
   15.7520   69.5368   -5.7326 N   0  0  0  0  0  0  0  0  0  0  0  0
   16.9281   70.0206   -6.3198 C   0  0  0  0  0  0  0  0  0  0  0  0
   17.8045   70.0899   -4.0532 C   0  0  0  0  0  0  0  0  0  0  0  0
   16.6763   69.6292   -3.5090 C   0  0  0  0  0  0  0  0  0  0  0  0
   15.5284   69.3129   -4.3833 C   0  0  0  0  0  0  0  0  0  0  0  0
   15.0053   69.3359   -6.3424 H   0  0  0  0  0  0  0  0  0  0  0  0
   21.0566   71.2003    0.1201 O   0  0  0  0  0  0  0  0  0  0  0  0
   21.1883   72.5471    1.0043 P   0  0  2  0  0  0  0  0  0  0  0  0
   21.6562   73.6563   -0.0766 O   0  0  0  0  0  0  0  0  0  0  0  0
   22.0979   72.4172    2.1916 O   0  0  0  0  0  0  0  0  0  0  0  0
   19.6676   72.9478    1.3673 O   0  0  0  0  0  0  0  0  0  0  0  0
   18.3419   74.5315    0.2049 O   0  0  0  0  0  0  0  0  0  0  0  0
   16.6939   74.9282    3.9702 O   0  0  0  0  0  0  0  0  0  0  0  0
   15.2025   73.6074    1.9016 O   0  0  0  0  0  0  0  0  0  0  0  0
   19.5471   74.5375    3.6767 O   0  0  0  0  0  0  0  0  0  0  0  0
   17.2958   74.2271    2.8787 C   0  0  1  0  0  0  0  0  0  0  0  0
   16.3838   74.3660    1.6581 C   0  0  1  0  0  0  0  0  0  0  0  0
   18.6699   74.8309    2.5946 C   0  0  2  0  0  0  0  0  0  0  0  0
   17.0833   73.8718    0.3848 C   0  0  1  0  0  0  0  0  0  0  0  0
   19.2554   74.3094    1.2811 C   0  0  1  0  0  0  0  0  0  0  0  0
   15.8213   74.5494    4.1560 H   0  0  0  0  0  0  0  0  0  0  0  0
   14.7707   73.9293    2.7086 H   0  0  0  0  0  0  0  0  0  0  0  0
   19.1654   74.8730    4.5023 H   0  0  0  0  0  0  0  0  0  0  0  0
   16.0323   72.9192   -1.5380 O   0  0  0  0  0  0  0  0  0  0  0  0
   16.2529   74.1462   -0.8672 C   0  0  0  0  0  0  0  0  0  0  0  0
   15.5047   73.0783   -2.3367 H   0  0  0  0  0  0  0  0  0  0  0  0
 25 28  1  0
 25 24  1  0
 25 26  1  6
 25 27  2  0
  1  4  1  0
  1 24  1  0
  1  2  1  1
  1  3  2  0
  6 11  1  0
  6 12  1  0
 29 36  1  0
 29 37  1  0
  9  7  1  6
  7 13  1  0
 10  8  1  6
  8 14  1  0
 37 28  1  1
  4  5  1  0
 33 30  1  1
 30 38  1  0
 34 31  1  1
 31 39  1  0
 35 32  1  1
 32 40  1  0
 41 42  1  0
 41 43  1  0
 15 19  2  0
 16 22  2  0
 12 17  1  1
 17 19  1  0
 17 20  1  0
 18 19  1  0
 18 22  1  0
 18 23  1  0
  9 10  1  0
  9 11  1  0
 10 12  1  0
 11  5  1  1
 33 34  1  0
 33 35  1  0
 34 36  1  0
 35 37  1  0
 36 42  1  6
 20 21  2  0
 21 22  1  0
M  CHG  2   2  -1  26  -1
M  END
>  <COMPND>  (191) 
    8629 

>  <AUTHOR>  (191) 
    GENERATED BY OPEN BABEL 3.1.1

>  <MASTER>  (191) 
        0    0    0    0    0    0    0    0   58    0   58    0

>  <minimizedAffinity>  (191) 
-6.95411

>  <CNNscore>  (191) 
0.3722018600

>  <CNNaffinity>  (191) 
3.9649384022

>  <CNN_VS>  (191) 
1.4757574797

>  <CNNaffinity_variance>  (191) 
0.3563853800

$$$$
192
     RDKit          3D

 43 45  0  0  0  0  0  0  0  0999 V2000
   22.5389   72.6275   -4.5069 P   0  0  2  0  0  0  0  0  0  0  0  0
   21.9816   72.0964   -5.9299 O   0  0  0  0  0  0  0  0  0  0  0  0
   23.9778   73.0527   -4.5086 O   0  0  0  0  0  0  0  0  0  0  0  0
   22.1577   71.4421   -3.4737 O   0  0  0  0  0  0  0  0  0  0  0  0
   23.0936   71.0949   -2.4680 C   0  0  0  0  0  0  0  0  0  0  0  0
   22.8110   70.9167   -0.0884 O   0  0  0  0  0  0  0  0  0  0  0  0
   20.2586   69.4622   -0.6887 O   0  0  0  0  0  0  0  0  0  0  0  0
   19.3817   71.9663   -0.0584 O   0  0  0  0  0  0  0  0  0  0  0  0
   20.8573   70.5570   -1.3804 C   0  0  1  0  0  0  0  0  0  0  0  0
   20.6850   71.8366   -0.5889 C   0  0  2  0  0  0  0  0  0  0  0  0
   22.3682   70.3633   -1.3470 C   0  0  1  0  0  0  0  0  0  0  0  0
   21.7431   71.6842    0.4906 C   0  0  2  0  0  0  0  0  0  0  0  0
   19.2934   69.5637   -0.6971 H   0  0  0  0  0  0  0  0  0  0  0  0
   18.7450   72.0604   -0.7840 H   0  0  0  0  0  0  0  0  0  0  0  0
   21.7843   72.5435    3.1809 O   0  0  0  0  0  0  0  0  0  0  0  0
   23.7594   76.5543    2.0611 O   0  0  0  0  0  0  0  0  0  0  0  0
   22.2627   72.9483    0.9305 N   0  0  0  0  0  0  0  0  0  0  0  0
   22.7679   74.5398    2.6212 N   0  0  0  0  0  0  0  0  0  0  0  0
   22.2354   73.2836    2.3043 C   0  0  0  0  0  0  0  0  0  0  0  0
   22.7921   73.8402    0.0041 C   0  0  0  0  0  0  0  0  0  0  0  0
   23.2948   75.0348    0.3224 C   0  0  0  0  0  0  0  0  0  0  0  0
   23.3042   75.4619    1.7365 C   0  0  0  0  0  0  0  0  0  0  0  0
   22.7591   74.7950    3.5723 H   0  0  0  0  0  0  0  0  0  0  0  0
   21.4922   73.7971   -4.1203 O   0  0  0  0  0  0  0  0  0  0  0  0
   19.8791   73.8503   -4.2102 P   0  0  2  0  0  0  0  0  0  0  0  0
   19.5689   75.4291   -4.3798 O   0  0  0  0  0  0  0  0  0  0  0  0
   19.1765   73.2020   -3.0526 O   0  0  0  0  0  0  0  0  0  0  0  0
   19.5288   73.2092   -5.6494 O   0  0  0  0  0  0  0  0  0  0  0  0
   17.3084   73.1406   -6.4751 O   0  0  0  0  0  0  0  0  0  0  0  0
   18.9146   70.0131   -8.6407 O   0  0  0  0  0  0  0  0  0  0  0  0
   18.2994   72.4862   -9.9649 O   0  0  0  0  0  0  0  0  0  0  0  0
   19.7061   70.4186   -5.8859 O   0  0  0  0  0  0  0  0  0  0  0  0
   18.9217   71.2872   -7.9910 C   0  0  1  0  0  0  0  0  0  0  0  0
   17.8566   72.1668   -8.6487 C   0  0  1  0  0  0  0  0  0  0  0  0
   18.6168   71.0925   -6.5069 C   0  0  2  0  0  0  0  0  0  0  0  0
   17.6194   73.4486   -7.8390 C   0  0  1  0  0  0  0  0  0  0  0  0
   18.3488   72.4254   -5.8058 C   0  0  1  0  0  0  0  0  0  0  0  0
   19.1080   70.1296   -9.5833 H   0  0  0  0  0  0  0  0  0  0  0  0
   18.4459   71.6681  -10.4654 H   0  0  0  0  0  0  0  0  0  0  0  0
   19.8655   69.5763   -6.3386 H   0  0  0  0  0  0  0  0  0  0  0  0
   16.9557   75.1858   -9.3392 O   0  0  0  0  0  0  0  0  0  0  0  0
   16.4519   74.2649   -8.3893 C   0  0  0  0  0  0  0  0  0  0  0  0
   16.2237   75.7121   -9.6982 H   0  0  0  0  0  0  0  0  0  0  0  0
 25 28  1  0
 25 24  1  0
 25 26  1  6
 25 27  2  0
  1  4  1  0
  1 24  1  0
  1  2  1  6
  1  3  2  0
  6 11  1  0
  6 12  1  0
 29 36  1  0
 29 37  1  0
  9  7  1  1
  7 13  1  0
 10  8  1  1
  8 14  1  0
 37 28  1  6
  4  5  1  0
 33 30  1  6
 30 38  1  0
 34 31  1  6
 31 39  1  0
 35 32  1  1
 32 40  1  0
 41 42  1  0
 41 43  1  0
 15 19  2  0
 16 22  2  0
 12 17  1  6
 17 19  1  0
 17 20  1  0
 18 19  1  0
 18 22  1  0
 18 23  1  0
  9 10  1  0
  9 11  1  0
 10 12  1  0
 11  5  1  6
 33 34  1  0
 33 35  1  0
 34 36  1  0
 35 37  1  0
 36 42  1  6
 20 21  2  0
 21 22  1  0
M  CHG  2   2  -1  26  -1
M  END
>  <COMPND>  (192) 
    8629 

>  <AUTHOR>  (192) 
    GENERATED BY OPEN BABEL 3.1.1

>  <MASTER>  (192) 
        0    0    0    0    0    0    0    0   58    0   58    0

>  <minimizedAffinity>  (192) 
-7.03252

>  <CNNscore>  (192) 
0.3650756776

>  <CNNaffinity>  (192) 
3.9761395454

>  <CNN_VS>  (192) 
1.4515918493

>  <CNNaffinity_variance>  (192) 
0.1440036744

$$$$
193
     RDKit          3D

 43 45  0  0  0  0  0  0  0  0999 V2000
   19.4121   71.6034   -2.3784 P   0  0  2  0  0  0  0  0  0  0  0  0
   17.8410   71.6727   -2.7579 O   0  0  0  0  0  0  0  0  0  0  0  0
   20.0741   70.2861   -2.6577 O   0  0  0  0  0  0  0  0  0  0  0  0
   19.4626   72.1030   -0.8403 O   0  0  0  0  0  0  0  0  0  0  0  0
   20.1717   73.2920   -0.5385 C   0  0  0  0  0  0  0  0  0  0  0  0
   22.2274   74.1351    0.3765 O   0  0  0  0  0  0  0  0  0  0  0  0
   22.8454   71.2955    1.1149 O   0  0  0  0  0  0  0  0  0  0  0  0
   21.9924   72.3524    3.4796 O   0  0  0  0  0  0  0  0  0  0  0  0
   21.5906   71.9742    1.1117 C   0  0  1  0  0  0  0  0  0  0  0  0
   21.5060   72.9286    2.2846 C   0  0  2  0  0  0  0  0  0  0  0  0
   21.5760   72.9280   -0.0762 C   0  0  1  0  0  0  0  0  0  0  0  0
   22.3592   74.0913    1.8067 C   0  0  2  0  0  0  0  0  0  0  0  0
   22.8782   70.6802    1.8648 H   0  0  0  0  0  0  0  0  0  0  0  0
   21.4161   71.6177    3.7424 H   0  0  0  0  0  0  0  0  0  0  0  0
   24.0513   76.3145    2.2216 O   0  0  0  0  0  0  0  0  0  0  0  0
   20.5994   78.8581    3.9116 O   0  0  0  0  0  0  0  0  0  0  0  0
   21.9290   75.3473    2.3534 N   0  0  0  0  0  0  0  0  0  0  0  0
   22.3311   77.5793    3.0626 N   0  0  0  0  0  0  0  0  0  0  0  0
   22.8587   76.3998    2.5219 C   0  0  0  0  0  0  0  0  0  0  0  0
   20.5983   75.5260    2.7156 C   0  0  0  0  0  0  0  0  0  0  0  0
   20.1113   76.6566    3.2312 C   0  0  0  0  0  0  0  0  0  0  0  0
   21.0167   77.8051    3.4395 C   0  0  0  0  0  0  0  0  0  0  0  0
   22.9604   78.3260    3.1894 H   0  0  0  0  0  0  0  0  0  0  0  0
   20.0371   72.8553   -3.1877 O   0  0  0  0  0  0  0  0  0  0  0  0
   20.5295   72.9886   -4.7216 P   0  0  2  0  0  0  0  0  0  0  0  0
   21.7434   71.9232   -4.8155 O   0  0  0  0  0  0  0  0  0  0  0  0
   20.8984   74.3853   -5.1303 O   0  0  0  0  0  0  0  0  0  0  0  0
   19.3402   72.3293   -5.5911 O   0  0  0  0  0  0  0  0  0  0  0  0
   18.5432   70.0978   -5.6291 O   0  0  0  0  0  0  0  0  0  0  0  0
   18.0842   71.0306   -9.6254 O   0  0  0  0  0  0  0  0  0  0  0  0
   15.7650   70.8041   -7.9467 O   0  0  0  0  0  0  0  0  0  0  0  0
   20.3920   72.0008   -8.1719 O   0  0  0  0  0  0  0  0  0  0  0  0
   18.0909   71.2908   -8.2191 C   0  0  1  0  0  0  0  0  0  0  0  0
   17.0646   70.3699   -7.5561 C   0  0  1  0  0  0  0  0  0  0  0  0
   19.4900   71.0215   -7.6682 C   0  0  2  0  0  0  0  0  0  0  0  0
   17.2006   70.3983   -6.0278 C   0  0  1  0  0  0  0  0  0  0  0  0
   19.5048   71.0238   -6.1386 C   0  0  1  0  0  0  0  0  0  0  0  0
   17.1988   71.2001   -9.9815 H   0  0  0  0  0  0  0  0  0  0  0  0
   15.6924   70.7820   -8.9139 H   0  0  0  0  0  0  0  0  0  0  0  0
   20.3735   71.9891   -9.1412 H   0  0  0  0  0  0  0  0  0  0  0  0
   16.1110   69.7504   -4.0024 O   0  0  0  0  0  0  0  0  0  0  0  0
   16.2945   69.3703   -5.3538 C   0  0  0  0  0  0  0  0  0  0  0  0
   15.5360   69.1053   -3.5609 H   0  0  0  0  0  0  0  0  0  0  0  0
 25 28  1  0
 25 24  1  0
 25 26  1  1
 25 27  2  0
  1  4  1  0
  1 24  1  0
  1  2  1  6
  1  3  2  0
  6 11  1  0
  6 12  1  0
 29 36  1  0
 29 37  1  0
  9  7  1  1
  7 13  1  0
 10  8  1  1
  8 14  1  0
 37 28  1  1
  4  5  1  0
 33 30  1  6
 30 38  1  0
 34 31  1  1
 31 39  1  0
 35 32  1  6
 32 40  1  0
 41 42  1  0
 41 43  1  0
 15 19  2  0
 16 22  2  0
 12 17  1  1
 17 19  1  0
 17 20  1  0
 18 19  1  0
 18 22  1  0
 18 23  1  0
  9 10  1  0
  9 11  1  0
 10 12  1  0
 11  5  1  1
 33 34  1  0
 33 35  1  0
 34 36  1  0
 35 37  1  0
 36 42  1  1
 20 21  2  0
 21 22  1  0
M  CHG  2   2  -1  26  -1
M  END
>  <COMPND>  (193) 
    8629 

>  <AUTHOR>  (193) 
    GENERATED BY OPEN BABEL 3.1.1

>  <MASTER>  (193) 
        0    0    0    0    0    0    0    0   58    0   58    0

>  <minimizedAffinity>  (193) 
-7.26361

>  <CNNscore>  (193) 
0.3641765714

>  <CNNaffinity>  (193) 
3.9932162762

>  <CNN_VS>  (193) 
1.4542357922

>  <CNNaffinity_variance>  (193) 
0.0427250564

$$$$
194
     RDKit          3D

 43 45  0  0  0  0  0  0  0  0999 V2000
   19.6167   69.4379   -3.0332 P   0  0  2  0  0  0  0  0  0  0  0  0
   19.5267   69.3273   -1.4217 O   0  0  0  0  0  0  0  0  0  0  0  0
   19.0853   68.2503   -3.7807 O   0  0  0  0  0  0  0  0  0  0  0  0
   21.1674   69.8067   -3.3113 O   0  0  0  0  0  0  0  0  0  0  0  0
   21.5237   71.1713   -3.4481 C   0  0  0  0  0  0  0  0  0  0  0  0
   23.0424   72.4884   -2.1318 O   0  0  0  0  0  0  0  0  0  0  0  0
   24.9388   70.1757   -2.3460 O   0  0  0  0  0  0  0  0  0  0  0  0
   23.8993   69.8622    0.1555 O   0  0  0  0  0  0  0  0  0  0  0  0
   23.5173   70.1686   -2.2260 C   0  0  1  0  0  0  0  0  0  0  0  0
   23.1073   70.5214   -0.8114 C   0  0  2  0  0  0  0  0  0  0  0  0
   22.9735   71.3505   -3.0189 C   0  0  1  0  0  0  0  0  0  0  0  0
   23.2981   72.0285   -0.7946 C   0  0  2  0  0  0  0  0  0  0  0  0
   25.3089   69.4294   -1.8480 H   0  0  0  0  0  0  0  0  0  0  0  0
   23.7425   68.9064    0.1051 H   0  0  0  0  0  0  0  0  0  0  0  0
   23.6055   74.6817    0.1241 O   0  0  0  0  0  0  0  0  0  0  0  0
   19.7630   74.4436    2.6579 O   0  0  0  0  0  0  0  0  0  0  0  0
   22.3926   72.6853    0.1055 N   0  0  0  0  0  0  0  0  0  0  0  0
   21.6919   74.5610    1.3849 N   0  0  0  0  0  0  0  0  0  0  0  0
   22.6386   74.0193    0.5061 C   0  0  0  0  0  0  0  0  0  0  0  0
   21.2752   72.0077    0.5811 C   0  0  0  0  0  0  0  0  0  0  0  0
   20.3827   72.5382    1.4197 C   0  0  0  0  0  0  0  0  0  0  0  0
   20.5661   73.9275    1.8868 C   0  0  0  0  0  0  0  0  0  0  0  0
   21.8428   75.4890    1.6779 H   0  0  0  0  0  0  0  0  0  0  0  0
   18.8512   70.8270   -3.3455 O   0  0  0  0  0  0  0  0  0  0  0  0
   17.3976   71.1162   -3.9906 P   0  0  2  0  0  0  0  0  0  0  0  0
   17.3036   72.7313   -3.9844 O   0  0  0  0  0  0  0  0  0  0  0  0
   16.2641   70.4273   -3.2873 O   0  0  0  0  0  0  0  0  0  0  0  0
   17.5562   70.7231   -5.5479 O   0  0  0  0  0  0  0  0  0  0  0  0
   19.0848   72.2229   -6.5630 O   0  0  0  0  0  0  0  0  0  0  0  0
   17.8940   70.1256   -9.9147 O   0  0  0  0  0  0  0  0  0  0  0  0
   20.5224   69.7029   -8.8371 O   0  0  0  0  0  0  0  0  0  0  0  0
   15.9640   70.7776   -7.8581 O   0  0  0  0  0  0  0  0  0  0  0  0
   18.2252   70.2962   -8.5339 C   0  0  1  0  0  0  0  0  0  0  0  0
   19.6744   70.7785   -8.4444 C   0  0  1  0  0  0  0  0  0  0  0  0
   17.2776   71.3230   -7.9165 C   0  0  2  0  0  0  0  0  0  0  0  0
   20.0184   71.2379   -7.0211 C   0  0  1  0  0  0  0  0  0  0  0  0
   17.7376   71.7485   -6.5210 C   0  0  1  0  0  0  0  0  0  0  0  0
   18.4917   69.4745  -10.3126 H   0  0  0  0  0  0  0  0  0  0  0  0
   20.2944   69.4220   -9.7373 H   0  0  0  0  0  0  0  0  0  0  0  0
   15.6843   70.5124   -8.7477 H   0  0  0  0  0  0  0  0  0  0  0  0
   22.0796   71.6262   -8.1655 O   0  0  0  0  0  0  0  0  0  0  0  0
   21.4068   71.8692   -6.9437 C   0  0  0  0  0  0  0  0  0  0  0  0
   22.9647   72.0226   -8.1308 H   0  0  0  0  0  0  0  0  0  0  0  0
 25 28  1  0
 25 24  1  0
 25 26  1  6
 25 27  2  0
  1  4  1  0
  1 24  1  0
  1  2  1  1
  1  3  2  0
  6 11  1  0
  6 12  1  0
 29 36  1  0
 29 37  1  0
  9  7  1  1
  7 13  1  0
 10  8  1  1
  8 14  1  0
 37 28  1  1
  4  5  1  0
 33 30  1  6
 30 38  1  0
 34 31  1  1
 31 39  1  0
 35 32  1  1
 32 40  1  0
 41 42  1  0
 41 43  1  0
 15 19  2  0
 16 22  2  0
 12 17  1  1
 17 19  1  0
 17 20  1  0
 18 19  1  0
 18 22  1  0
 18 23  1  0
  9 10  1  0
  9 11  1  0
 10 12  1  0
 11  5  1  1
 33 34  1  0
 33 35  1  0
 34 36  1  0
 35 37  1  0
 36 42  1  6
 20 21  2  0
 21 22  1  0
M  CHG  2   2  -1  26  -1
M  END
>  <COMPND>  (194) 
    8629 

>  <AUTHOR>  (194) 
    GENERATED BY OPEN BABEL 3.1.1

>  <MASTER>  (194) 
        0    0    0    0    0    0    0    0   58    0   58    0

>  <minimizedAffinity>  (194) 
-8.59047

>  <CNNscore>  (194) 
0.3624323308

>  <CNNaffinity>  (194) 
4.0575304031

>  <CNN_VS>  (194) 
1.4705802202

>  <CNNaffinity_variance>  (194) 
0.4266308248

$$$$
195
     RDKit          3D

 43 45  0  0  0  0  0  0  0  0999 V2000
   22.5968   70.7160   -2.4930 P   0  0  2  0  0  0  0  0  0  0  0  0
   24.0325   70.0110   -2.7360 O   0  0  0  0  0  0  0  0  0  0  0  0
   22.4749   72.1094   -3.0361 O   0  0  0  0  0  0  0  0  0  0  0  0
   22.3510   70.5582   -0.9016 O   0  0  0  0  0  0  0  0  0  0  0  0
   22.7419   71.6199   -0.0485 C   0  0  0  0  0  0  0  0  0  0  0  0
   22.2641   72.6148    2.0859 O   0  0  0  0  0  0  0  0  0  0  0  0
   19.3727   72.1379    1.4510 O   0  0  0  0  0  0  0  0  0  0  0  0
   19.6744   74.7899    0.8920 O   0  0  0  0  0  0  0  0  0  0  0  0
   20.4397   72.5037    0.5775 C   0  0  1  0  0  0  0  0  0  0  0  0
   20.8111   73.9577    0.7813 C   0  0  2  0  0  0  0  0  0  0  0  0
   21.6983   71.7851    1.0477 C   0  0  1  0  0  0  0  0  0  0  0  0
   21.6202   73.8993    2.0658 C   0  0  2  0  0  0  0  0  0  0  0  0
   18.5579   72.5845    1.1704 H   0  0  0  0  0  0  0  0  0  0  0  0
   19.1933   74.7941    0.0499 H   0  0  0  0  0  0  0  0  0  0  0  0
   22.8874   74.7488    4.4429 O   0  0  0  0  0  0  0  0  0  0  0  0
   25.4524   77.8425    2.1865 O   0  0  0  0  0  0  0  0  0  0  0  0
   22.6232   74.9247    2.1285 N   0  0  0  0  0  0  0  0  0  0  0  0
   24.1637   76.2884    3.3174 N   0  0  0  0  0  0  0  0  0  0  0  0
   23.1960   75.2772    3.3727 C   0  0  0  0  0  0  0  0  0  0  0  0
   23.0294   75.5688    0.9649 C   0  0  0  0  0  0  0  0  0  0  0  0
   23.9525   76.5320    0.9293 C   0  0  0  0  0  0  0  0  0  0  0  0
   24.6002   76.9596    2.1862 C   0  0  0  0  0  0  0  0  0  0  0  0
   24.5763   76.5508    4.1722 H   0  0  0  0  0  0  0  0  0  0  0  0
   21.5577   69.6531   -3.1282 O   0  0  0  0  0  0  0  0  0  0  0  0
   19.9631   69.7459   -3.3766 P   0  0  2  0  0  0  0  0  0  0  0  0
   19.3981   70.2883   -1.9609 O   0  0  0  0  0  0  0  0  0  0  0  0
   19.3372   68.4634   -3.8427 O   0  0  0  0  0  0  0  0  0  0  0  0
   19.7793   70.9874   -4.3914 O   0  0  0  0  0  0  0  0  0  0  0  0
   18.9513   70.3340   -6.5137 O   0  0  0  0  0  0  0  0  0  0  0  0
   20.0469   74.2156   -7.3993 O   0  0  0  0  0  0  0  0  0  0  0  0
   17.2634   73.5417   -7.1848 O   0  0  0  0  0  0  0  0  0  0  0  0
   21.6951   72.6163   -5.6371 O   0  0  0  0  0  0  0  0  0  0  0  0
   19.5447   73.1589   -6.5767 C   0  0  1  0  0  0  0  0  0  0  0  0
   18.3048   72.5718   -7.2541 C   0  0  1  0  0  0  0  0  0  0  0  0
   20.6267   72.0923   -6.4184 C   0  0  2  0  0  0  0  0  0  0  0  0
   17.8669   71.2679   -6.5735 C   0  0  1  0  0  0  0  0  0  0  0  0
   20.0747   70.8188   -5.7755 C   0  0  1  0  0  0  0  0  0  0  0  0
   19.3649   74.8964   -7.5034 H   0  0  0  0  0  0  0  0  0  0  0  0
   17.5529   74.3603   -7.6177 H   0  0  0  0  0  0  0  0  0  0  0  0
   22.0360   73.4220   -6.0547 H   0  0  0  0  0  0  0  0  0  0  0  0
   16.8232   70.9329   -8.6966 O   0  0  0  0  0  0  0  0  0  0  0  0
   16.7294   70.5830   -7.3280 C   0  0  0  0  0  0  0  0  0  0  0  0
   16.1057   70.5039   -9.1893 H   0  0  0  0  0  0  0  0  0  0  0  0
 25 28  1  0
 25 24  1  0
 25 26  1  1
 25 27  2  0
  1  4  1  0
  1 24  1  0
  1  2  1  1
  1  3  2  0
  6 11  1  0
  6 12  1  0
 29 36  1  0
 29 37  1  0
  9  7  1  1
  7 13  1  0
 10  8  1  1
  8 14  1  0
 37 28  1  1
  4  5  1  0
 33 30  1  6
 30 38  1  0
 34 31  1  1
 31 39  1  0
 35 32  1  1
 32 40  1  0
 41 42  1  0
 41 43  1  0
 15 19  2  0
 16 22  2  0
 12 17  1  6
 17 19  1  0
 17 20  1  0
 18 19  1  0
 18 22  1  0
 18 23  1  0
  9 10  1  0
  9 11  1  0
 10 12  1  0
 11  5  1  6
 33 34  1  0
 33 35  1  0
 34 36  1  0
 35 37  1  0
 36 42  1  6
 20 21  2  0
 21 22  1  0
M  CHG  2   2  -1  26  -1
M  END
>  <COMPND>  (195) 
    8629 

>  <AUTHOR>  (195) 
    GENERATED BY OPEN BABEL 3.1.1

>  <MASTER>  (195) 
        0    0    0    0    0    0    0    0   58    0   58    0

>  <minimizedAffinity>  (195) 
-7.47085

>  <CNNscore>  (195) 
0.3572847545

>  <CNNaffinity>  (195) 
3.9958789349

>  <CNN_VS>  (195) 
1.4276666641

>  <CNNaffinity_variance>  (195) 
0.0912758559

$$$$
196
     RDKit          3D

 43 45  0  0  0  0  0  0  0  0999 V2000
   20.3891   70.3557   -2.0422 P   0  0  2  0  0  0  0  0  0  0  0  0
   19.8787   69.5112   -0.7601 O   0  0  0  0  0  0  0  0  0  0  0  0
   21.4192   69.6651   -2.8868 O   0  0  0  0  0  0  0  0  0  0  0  0
   20.8333   71.7804   -1.4171 O   0  0  0  0  0  0  0  0  0  0  0  0
   21.7066   71.7863   -0.3012 C   0  0  0  0  0  0  0  0  0  0  0  0
   21.6983   72.6759    1.9309 O   0  0  0  0  0  0  0  0  0  0  0  0
   18.7089   72.4880    1.7939 O   0  0  0  0  0  0  0  0  0  0  0  0
   19.1601   75.1359    1.3232 O   0  0  0  0  0  0  0  0  0  0  0  0
   19.6401   72.8187    0.7650 C   0  0  1  0  0  0  0  0  0  0  0  0
   20.1770   74.2196    0.9721 C   0  0  2  0  0  0  0  0  0  0  0  0
   20.8868   71.9669    0.9690 C   0  0  1  0  0  0  0  0  0  0  0  0
   21.1851   74.0088    2.0889 C   0  0  2  0  0  0  0  0  0  0  0  0
   17.9041   73.0192    1.6844 H   0  0  0  0  0  0  0  0  0  0  0  0
   18.5443   75.2359    0.5806 H   0  0  0  0  0  0  0  0  0  0  0  0
   22.6966   74.8529    4.3207 O   0  0  0  0  0  0  0  0  0  0  0  0
   25.3486   77.5838    1.7225 O   0  0  0  0  0  0  0  0  0  0  0  0
   22.2765   74.9394    2.0243 N   0  0  0  0  0  0  0  0  0  0  0  0
   24.0160   76.2119    3.0252 N   0  0  0  0  0  0  0  0  0  0  0  0
   22.9697   75.2979    3.2040 C   0  0  0  0  0  0  0  0  0  0  0  0
   22.6498   75.4859    0.8013 C   0  0  0  0  0  0  0  0  0  0  0  0
   23.6491   76.3572    0.6479 C   0  0  0  0  0  0  0  0  0  0  0  0
   24.4242   76.7841    1.8307 C   0  0  0  0  0  0  0  0  0  0  0  0
   24.5129   76.4766    3.8331 H   0  0  0  0  0  0  0  0  0  0  0  0
   19.0140   70.7108   -2.8144 O   0  0  0  0  0  0  0  0  0  0  0  0
   17.9330   69.7595   -3.5489 P   0  0  2  0  0  0  0  0  0  0  0  0
   16.5251   70.4987   -3.2505 O   0  0  0  0  0  0  0  0  0  0  0  0
   17.9823   68.3230   -3.1153 O   0  0  0  0  0  0  0  0  0  0  0  0
   18.1891   69.9916   -5.1254 O   0  0  0  0  0  0  0  0  0  0  0  0
   18.9422   72.1366   -5.7950 O   0  0  0  0  0  0  0  0  0  0  0  0
   17.6324   70.7271   -9.4485 O   0  0  0  0  0  0  0  0  0  0  0  0
   20.4504   70.9618   -8.9468 O   0  0  0  0  0  0  0  0  0  0  0  0
   16.1445   70.1074   -7.0441 O   0  0  0  0  0  0  0  0  0  0  0  0
   18.2205   70.6282   -8.1486 C   0  0  1  0  0  0  0  0  0  0  0  0
   19.4513   71.5361   -8.1088 C   0  0  1  0  0  0  0  0  0  0  0  0
   17.1963   71.0648   -7.1029 C   0  0  2  0  0  0  0  0  0  0  0  0
   19.9796   71.6906   -6.6763 C   0  0  1  0  0  0  0  0  0  0  0  0
   17.8352   71.2359   -5.7235 C   0  0  1  0  0  0  0  0  0  0  0  0
   18.2775   70.4508  -10.1172 H   0  0  0  0  0  0  0  0  0  0  0  0
   20.1040   70.8692   -9.8482 H   0  0  0  0  0  0  0  0  0  0  0  0
   15.7480   70.0084   -7.9232 H   0  0  0  0  0  0  0  0  0  0  0  0
   22.2265   72.2123   -7.2992 O   0  0  0  0  0  0  0  0  0  0  0  0
   21.1089   72.7151   -6.5905 C   0  0  0  0  0  0  0  0  0  0  0  0
   22.9530   72.8540   -7.2535 H   0  0  0  0  0  0  0  0  0  0  0  0
 25 28  1  0
 25 24  1  0
 25 26  1  1
 25 27  2  0
  1  4  1  0
  1 24  1  0
  1  2  1  1
  1  3  2  0
  6 11  1  0
  6 12  1  0
 29 36  1  0
 29 37  1  0
  9  7  1  1
  7 13  1  0
 10  8  1  1
  8 14  1  0
 37 28  1  6
  4  5  1  0
 33 30  1  6
 30 38  1  0
 34 31  1  6
 31 39  1  0
 35 32  1  1
 32 40  1  0
 41 42  1  0
 41 43  1  0
 15 19  2  0
 16 22  2  0
 12 17  1  6
 17 19  1  0
 17 20  1  0
 18 19  1  0
 18 22  1  0
 18 23  1  0
  9 10  1  0
  9 11  1  0
 10 12  1  0
 11  5  1  6
 33 34  1  0
 33 35  1  0
 34 36  1  0
 35 37  1  0
 36 42  1  6
 20 21  2  0
 21 22  1  0
M  CHG  2   2  -1  26  -1
M  END
>  <COMPND>  (196) 
    8629 

>  <AUTHOR>  (196) 
    GENERATED BY OPEN BABEL 3.1.1

>  <MASTER>  (196) 
        0    0    0    0    0    0    0    0   58    0   58    0

>  <minimizedAffinity>  (196) 
-7.87978

>  <CNNscore>  (196) 
0.3534960449

>  <CNNaffinity>  (196) 
4.0180845261

>  <CNN_VS>  (196) 
1.4203770161

>  <CNNaffinity_variance>  (196) 
0.0889495537

$$$$
197
     RDKit          3D

 43 45  0  0  0  0  0  0  0  0999 V2000
   17.7115   72.7542   -2.1516 P   0  0  2  0  0  0  0  0  0  0  0  0
   18.5554   73.6614   -3.1920 O   0  0  0  0  0  0  0  0  0  0  0  0
   16.4326   73.3707   -1.6659 O   0  0  0  0  0  0  0  0  0  0  0  0
   18.7882   72.3745   -1.0052 O   0  0  0  0  0  0  0  0  0  0  0  0
   18.7437   73.0782    0.2239 C   0  0  0  0  0  0  0  0  0  0  0  0
   20.7395   71.7480    0.3693 O   0  0  0  0  0  0  0  0  0  0  0  0
   21.1564   73.0045    3.0598 O   0  0  0  0  0  0  0  0  0  0  0  0
   22.8657   74.4173    1.4727 O   0  0  0  0  0  0  0  0  0  0  0  0
   20.6185   73.5784    1.8696 C   0  0  1  0  0  0  0  0  0  0  0  0
   21.7233   73.8455    0.8687 C   0  0  2  0  0  0  0  0  0  0  0  0
   19.7993   72.5070    1.1607 C   0  0  1  0  0  0  0  0  0  0  0  0
   21.9886   72.4562    0.3141 C   0  0  2  0  0  0  0  0  0  0  0  0
   21.6834   73.6702    3.5299 H   0  0  0  0  0  0  0  0  0  0  0  0
   22.6460   75.2998    1.8096 H   0  0  0  0  0  0  0  0  0  0  0  0
   23.5626   70.4417   -0.8868 O   0  0  0  0  0  0  0  0  0  0  0  0
   23.6900   72.6844   -4.9111 O   0  0  0  0  0  0  0  0  0  0  0  0
   22.4469   72.4879   -1.0462 N   0  0  0  0  0  0  0  0  0  0  0  0
   23.6246   71.5599   -2.8896 N   0  0  0  0  0  0  0  0  0  0  0  0
   23.2330   71.4262   -1.5514 C   0  0  0  0  0  0  0  0  0  0  0  0
   22.1163   73.5630   -1.8640 C   0  0  0  0  0  0  0  0  0  0  0  0
   22.4987   73.6761   -3.1376 C   0  0  0  0  0  0  0  0  0  0  0  0
   23.3224   72.6096   -3.7427 C   0  0  0  0  0  0  0  0  0  0  0  0
   24.1732   70.8324   -3.2631 H   0  0  0  0  0  0  0  0  0  0  0  0
   17.5258   71.3617   -2.9512 O   0  0  0  0  0  0  0  0  0  0  0  0
   18.6146   70.3405   -3.5715 P   0  0  2  0  0  0  0  0  0  0  0  0
   18.1825   68.9124   -2.9458 O   0  0  0  0  0  0  0  0  0  0  0  0
   20.0410   70.7264   -3.3068 O   0  0  0  0  0  0  0  0  0  0  0  0
   18.2298   70.2335   -5.1353 O   0  0  0  0  0  0  0  0  0  0  0  0
   18.8869   72.3366   -6.0081 O   0  0  0  0  0  0  0  0  0  0  0  0
   17.6241   70.5370   -9.5035 O   0  0  0  0  0  0  0  0  0  0  0  0
   20.4314   70.9374   -9.0488 O   0  0  0  0  0  0  0  0  0  0  0  0
   16.1742   70.0822   -7.0397 O   0  0  0  0  0  0  0  0  0  0  0  0
   18.2213   70.5853   -8.2049 C   0  0  1  0  0  0  0  0  0  0  0  0
   19.4120   71.5445   -8.2599 C   0  0  1  0  0  0  0  0  0  0  0  0
   17.1835   71.0738   -7.1961 C   0  0  2  0  0  0  0  0  0  0  0  0
   19.9390   71.8547   -6.8524 C   0  0  1  0  0  0  0  0  0  0  0  0
   17.8201   71.4002   -5.8440 C   0  0  1  0  0  0  0  0  0  0  0  0
   18.2777   70.2271  -10.1487 H   0  0  0  0  0  0  0  0  0  0  0  0
   20.0856   70.7462   -9.9348 H   0  0  0  0  0  0  0  0  0  0  0  0
   15.7788   69.8846   -7.9025 H   0  0  0  0  0  0  0  0  0  0  0  0
   22.2469   72.3272   -7.2512 O   0  0  0  0  0  0  0  0  0  0  0  0
   21.0233   72.9298   -6.8717 C   0  0  0  0  0  0  0  0  0  0  0  0
   22.9463   72.9998   -7.2682 H   0  0  0  0  0  0  0  0  0  0  0  0
 25 28  1  0
 25 24  1  0
 25 26  1  1
 25 27  2  0
  1  4  1  0
  1 24  1  0
  1  2  1  6
  1  3  2  0
  6 11  1  0
  6 12  1  0
 29 36  1  0
 29 37  1  0
  9  7  1  1
  7 13  1  0
 10  8  1  1
  8 14  1  0
 37 28  1  6
  4  5  1  0
 33 30  1  6
 30 38  1  0
 34 31  1  6
 31 39  1  0
 35 32  1  1
 32 40  1  0
 41 42  1  0
 41 43  1  0
 15 19  2  0
 16 22  2  0
 12 17  1  6
 17 19  1  0
 17 20  1  0
 18 19  1  0
 18 22  1  0
 18 23  1  0
  9 10  1  0
  9 11  1  0
 10 12  1  0
 11  5  1  6
 33 34  1  0
 33 35  1  0
 34 36  1  0
 35 37  1  0
 36 42  1  6
 20 21  2  0
 21 22  1  0
M  CHG  2   2  -1  26  -1
M  END
>  <COMPND>  (197) 
    8629 

>  <AUTHOR>  (197) 
    GENERATED BY OPEN BABEL 3.1.1

>  <MASTER>  (197) 
        0    0    0    0    0    0    0    0   58    0   58    0

>  <minimizedAffinity>  (197) 
-7.37922

>  <CNNscore>  (197) 
0.3521503806

>  <CNNaffinity>  (197) 
3.7986152172

>  <CNN_VS>  (197) 
1.3376837969

>  <CNNaffinity_variance>  (197) 
0.8410220146

$$$$
198
     RDKit          3D

 43 45  0  0  0  0  0  0  0  0999 V2000
   23.0474   70.7513   -2.5690 P   0  0  2  0  0  0  0  0  0  0  0  0
   24.1584   69.9150   -1.7421 O   0  0  0  0  0  0  0  0  0  0  0  0
   23.5769   71.5175   -3.7455 O   0  0  0  0  0  0  0  0  0  0  0  0
   22.3009   71.6319   -1.4354 O   0  0  0  0  0  0  0  0  0  0  0  0
   22.9496   71.8207   -0.1899 C   0  0  0  0  0  0  0  0  0  0  0  0
   22.4301   72.6804    1.9930 O   0  0  0  0  0  0  0  0  0  0  0  0
   19.5616   72.1148    1.3278 O   0  0  0  0  0  0  0  0  0  0  0  0
   19.7497   74.8030    0.9099 O   0  0  0  0  0  0  0  0  0  0  0  0
   20.6119   72.5713    0.4770 C   0  0  1  0  0  0  0  0  0  0  0  0
   20.9209   74.0270    0.7579 C   0  0  2  0  0  0  0  0  0  0  0  0
   21.9000   71.8832    0.9113 C   0  0  1  0  0  0  0  0  0  0  0  0
   21.7319   73.9355    2.0393 C   0  0  2  0  0  0  0  0  0  0  0  0
   18.7284   72.5403    1.0694 H   0  0  0  0  0  0  0  0  0  0  0  0
   19.2687   74.8310    0.0682 H   0  0  0  0  0  0  0  0  0  0  0  0
   22.9010   74.7655    4.4729 O   0  0  0  0  0  0  0  0  0  0  0  0
   25.3955   78.0238    2.3749 O   0  0  0  0  0  0  0  0  0  0  0  0
   22.6902   74.9980    2.1580 N   0  0  0  0  0  0  0  0  0  0  0  0
   24.1423   76.3871    3.4262 N   0  0  0  0  0  0  0  0  0  0  0  0
   23.2155   75.3368    3.4268 C   0  0  0  0  0  0  0  0  0  0  0  0
   23.1000   75.6915    1.0244 C   0  0  0  0  0  0  0  0  0  0  0  0
   23.9836   76.6915    1.0410 C   0  0  0  0  0  0  0  0  0  0  0  0
   24.5803   77.1079    2.3266 C   0  0  0  0  0  0  0  0  0  0  0  0
   24.5213   76.6408    4.2990 H   0  0  0  0  0  0  0  0  0  0  0  0
   21.9468   69.6266   -2.9388 O   0  0  0  0  0  0  0  0  0  0  0  0
   20.4315   69.7633   -3.4848 P   0  0  2  0  0  0  0  0  0  0  0  0
   19.6375   70.3913   -2.2227 O   0  0  0  0  0  0  0  0  0  0  0  0
   19.8483   68.4829   -4.0085 O   0  0  0  0  0  0  0  0  0  0  0  0
   20.4929   70.9612   -4.5647 O   0  0  0  0  0  0  0  0  0  0  0  0
   20.2056   73.2005   -3.8438 O   0  0  0  0  0  0  0  0  0  0  0  0
   19.2857   73.6713   -7.8417 O   0  0  0  0  0  0  0  0  0  0  0  0
   21.7741   74.6875   -6.8300 O   0  0  0  0  0  0  0  0  0  0  0  0
   18.4248   71.2940   -6.4321 O   0  0  0  0  0  0  0  0  0  0  0  0
   19.9766   73.1134   -6.7206 C   0  0  1  0  0  0  0  0  0  0  0  0
   20.7071   74.2455   -5.9956 C   0  0  1  0  0  0  0  0  0  0  0  0
   18.9639   72.4456   -5.7921 C   0  0  2  0  0  0  0  0  0  0  0  0
   21.2491   73.7756   -4.6389 C   0  0  1  0  0  0  0  0  0  0  0  0
   19.5939   72.0614   -4.4521 C   0  0  1  0  0  0  0  0  0  0  0  0
   19.9231   74.0965   -8.4354 H   0  0  0  0  0  0  0  0  0  0  0  0
   21.4184   74.9810   -7.6836 H   0  0  0  0  0  0  0  0  0  0  0  0
   18.0288   71.5505   -7.2790 H   0  0  0  0  0  0  0  0  0  0  0  0
   22.6847   74.3857   -2.8291 O   0  0  0  0  0  0  0  0  0  0  0  0
   21.8429   74.9270   -3.8304 C   0  0  0  0  0  0  0  0  0  0  0  0
   23.0700   75.1071   -2.3067 H   0  0  0  0  0  0  0  0  0  0  0  0
 25 28  1  0
 25 24  1  0
 25 26  1  1
 25 27  2  0
  1  4  1  0
  1 24  1  0
  1  2  1  1
  1  3  2  0
  6 11  1  0
  6 12  1  0
 29 36  1  0
 29 37  1  0
  9  7  1  1
  7 13  1  0
 10  8  1  1
  8 14  1  0
 37 28  1  6
  4  5  1  0
 33 30  1  6
 30 38  1  0
 34 31  1  6
 31 39  1  0
 35 32  1  6
 32 40  1  0
 41 42  1  0
 41 43  1  0
 15 19  2  0
 16 22  2  0
 12 17  1  6
 17 19  1  0
 17 20  1  0
 18 19  1  0
 18 22  1  0
 18 23  1  0
  9 10  1  0
  9 11  1  0
 10 12  1  0
 11  5  1  6
 33 34  1  0
 33 35  1  0
 34 36  1  0
 35 37  1  0
 36 42  1  1
 20 21  2  0
 21 22  1  0
M  CHG  2   2  -1  26  -1
M  END
>  <COMPND>  (198) 
    8629 

>  <AUTHOR>  (198) 
    GENERATED BY OPEN BABEL 3.1.1

>  <MASTER>  (198) 
        0    0    0    0    0    0    0    0   58    0   58    0

>  <minimizedAffinity>  (198) 
-6.81069

>  <CNNscore>  (198) 
0.3437827229

>  <CNNaffinity>  (198) 
3.9365508556

>  <CNN_VS>  (198) 
1.3533182144

>  <CNNaffinity_variance>  (198) 
0.1547613740

$$$$
199
     RDKit          3D

 43 45  0  0  0  0  0  0  0  0999 V2000
   22.7550   73.7104   -4.9620 P   0  0  2  0  0  0  0  0  0  0  0  0
   22.9362   72.7806   -6.2734 O   0  0  0  0  0  0  0  0  0  0  0  0
   23.7028   74.8701   -4.8714 O   0  0  0  0  0  0  0  0  0  0  0  0
   22.8088   72.6612   -3.7315 O   0  0  0  0  0  0  0  0  0  0  0  0
   22.7961   73.1692   -2.4087 C   0  0  0  0  0  0  0  0  0  0  0  0
   22.9068   72.5142   -0.0995 O   0  0  0  0  0  0  0  0  0  0  0  0
   23.0276   69.6903   -1.1004 O   0  0  0  0  0  0  0  0  0  0  0  0
   20.4205   69.9407   -0.3408 O   0  0  0  0  0  0  0  0  0  0  0  0
   22.2999   70.8015   -1.6208 C   0  0  1  0  0  0  0  0  0  0  0  0
   21.1082   71.1094   -0.7383 C   0  0  2  0  0  0  0  0  0  0  0  0
   23.1573   72.0484   -1.4437 C   0  0  1  0  0  0  0  0  0  0  0  0
   21.7590   71.8306    0.4297 C   0  0  2  0  0  0  0  0  0  0  0  0
   22.5001   68.8820   -1.2027 H   0  0  0  0  0  0  0  0  0  0  0  0
   20.0242   69.5182   -1.1188 H   0  0  0  0  0  0  0  0  0  0  0  0
   21.9500   72.6939    3.1123 O   0  0  0  0  0  0  0  0  0  0  0  0
   18.3409   75.5228    2.6508 O   0  0  0  0  0  0  0  0  0  0  0  0
   20.8825   72.7922    1.0367 N   0  0  0  0  0  0  0  0  0  0  0  0
   20.1529   74.1019    2.8803 N   0  0  0  0  0  0  0  0  0  0  0  0
   21.0634   73.1564    2.3914 C   0  0  0  0  0  0  0  0  0  0  0  0
   19.8575   73.3636    0.2906 C   0  0  0  0  0  0  0  0  0  0  0  0
   18.9968   74.2629    0.7720 C   0  0  0  0  0  0  0  0  0  0  0  0
   19.1168   74.6977    2.1786 C   0  0  0  0  0  0  0  0  0  0  0  0
   20.2593   74.3706    3.8217 H   0  0  0  0  0  0  0  0  0  0  0  0
   21.1928   74.1215   -5.0209 O   0  0  0  0  0  0  0  0  0  0  0  0
   19.8537   73.2281   -4.8734 P   0  0  2  0  0  0  0  0  0  0  0  0
   18.6943   74.3326   -4.6426 O   0  0  0  0  0  0  0  0  0  0  0  0
   19.9298   72.1774   -3.8037 O   0  0  0  0  0  0  0  0  0  0  0  0
   19.5803   72.6538   -6.3568 O   0  0  0  0  0  0  0  0  0  0  0  0
   19.1165   70.4209   -5.7121 O   0  0  0  0  0  0  0  0  0  0  0  0
   17.6572   70.3095   -9.5733 O   0  0  0  0  0  0  0  0  0  0  0  0
   15.8229   70.3030   -7.3634 O   0  0  0  0  0  0  0  0  0  0  0  0
   20.0696   71.7968   -8.9838 O   0  0  0  0  0  0  0  0  0  0  0  0
   17.9386   70.9041   -8.3034 C   0  0  1  0  0  0  0  0  0  0  0  0
   17.2246   70.0889   -7.2234 C   0  0  1  0  0  0  0  0  0  0  0  0
   19.4485   70.8968   -8.0724 C   0  0  2  0  0  0  0  0  0  0  0  0
   17.6904   70.5002   -5.8202 C   0  0  1  0  0  0  0  0  0  0  0  0
   19.8014   71.2731   -6.6322 C   0  0  1  0  0  0  0  0  0  0  0  0
   16.7001   70.3114   -9.7263 H   0  0  0  0  0  0  0  0  0  0  0  0
   15.5418   70.0398   -8.2539 H   0  0  0  0  0  0  0  0  0  0  0  0
   19.8388   71.5478   -9.8918 H   0  0  0  0  0  0  0  0  0  0  0  0
   15.8468   70.1058   -4.3523 O   0  0  0  0  0  0  0  0  0  0  0  0
   17.1099   69.5944   -4.7364 C   0  0  0  0  0  0  0  0  0  0  0  0
   15.4652   69.5390   -3.6632 H   0  0  0  0  0  0  0  0  0  0  0  0
 25 28  1  0
 25 24  1  0
 25 26  1  1
 25 27  2  0
  1  4  1  0
  1 24  1  0
  1  2  1  6
  1  3  2  0
  6 11  1  0
  6 12  1  0
 29 36  1  0
 29 37  1  0
  9  7  1  1
  7 13  1  0
 10  8  1  1
  8 14  1  0
 37 28  1  1
  4  5  1  0
 33 30  1  6
 30 38  1  0
 34 31  1  1
 31 39  1  0
 35 32  1  6
 32 40  1  0
 41 42  1  0
 41 43  1  0
 15 19  2  0
 16 22  2  0
 12 17  1  6
 17 19  1  0
 17 20  1  0
 18 19  1  0
 18 22  1  0
 18 23  1  0
  9 10  1  0
  9 11  1  0
 10 12  1  0
 11  5  1  6
 33 34  1  0
 33 35  1  0
 34 36  1  0
 35 37  1  0
 36 42  1  1
 20 21  2  0
 21 22  1  0
M  CHG  2   2  -1  26  -1
M  END
>  <COMPND>  (199) 
    8629 

>  <AUTHOR>  (199) 
    GENERATED BY OPEN BABEL 3.1.1

>  <MASTER>  (199) 
        0    0    0    0    0    0    0    0   58    0   58    0

>  <minimizedAffinity>  (199) 
-8.12161

>  <CNNscore>  (199) 
0.3421042562

>  <CNNaffinity>  (199) 
4.1493525505

>  <CNN_VS>  (199) 
1.4195111990

>  <CNNaffinity_variance>  (199) 
0.2361263931

$$$$
200
     RDKit          3D

 43 45  0  0  0  0  0  0  0  0999 V2000
   20.8092   70.2991   -1.8732 P   0  0  2  0  0  0  0  0  0  0  0  0
   20.2101   69.4023   -0.6673 O   0  0  0  0  0  0  0  0  0  0  0  0
   21.7456   69.5760   -2.7960 O   0  0  0  0  0  0  0  0  0  0  0  0
   21.4222   71.5962   -1.1251 O   0  0  0  0  0  0  0  0  0  0  0  0
   22.0665   71.4148    0.1238 C   0  0  0  0  0  0  0  0  0  0  0  0
   21.6737   73.7798   -0.0389 O   0  0  0  0  0  0  0  0  0  0  0  0
   22.7099   73.9557    2.7693 O   0  0  0  0  0  0  0  0  0  0  0  0
   20.0089   74.0817    3.1234 O   0  0  0  0  0  0  0  0  0  0  0  0
   21.9232   72.9331    2.1603 C   0  0  1  0  0  0  0  0  0  0  0  0
   20.4949   73.4042    1.9825 C   0  0  2  0  0  0  0  0  0  0  0  0
   22.3893   72.7790    0.7179 C   0  0  1  0  0  0  0  0  0  0  0  0
   20.6111   74.3113    0.7693 C   0  0  2  0  0  0  0  0  0  0  0  0
   22.4307   74.0720    3.6916 H   0  0  0  0  0  0  0  0  0  0  0  0
   19.9530   73.4625    3.8679 H   0  0  0  0  0  0  0  0  0  0  0  0
   18.7075   72.2260    0.6920 O   0  0  0  0  0  0  0  0  0  0  0  0
   16.0208   74.5408   -2.2516 O   0  0  0  0  0  0  0  0  0  0  0  0
   19.4047   74.3427   -0.0086 N   0  0  0  0  0  0  0  0  0  0  0  0
   17.3712   73.3804   -0.7735 N   0  0  0  0  0  0  0  0  0  0  0  0
   18.5159   73.2429    0.0220 C   0  0  0  0  0  0  0  0  0  0  0  0
   19.1129   75.4552   -0.7902 C   0  0  0  0  0  0  0  0  0  0  0  0
   18.0176   75.5702   -1.5442 C   0  0  0  0  0  0  0  0  0  0  0  0
   17.0374   74.4654   -1.5685 C   0  0  0  0  0  0  0  0  0  0  0  0
   16.7377   72.6264   -0.7683 H   0  0  0  0  0  0  0  0  0  0  0  0
   19.4813   70.8842   -2.5854 O   0  0  0  0  0  0  0  0  0  0  0  0
   18.1513   70.1410   -3.1256 P   0  0  2  0  0  0  0  0  0  0  0  0
   16.9792   71.2161   -2.8293 O   0  0  0  0  0  0  0  0  0  0  0  0
   17.9158   68.7862   -2.5232 O   0  0  0  0  0  0  0  0  0  0  0  0
   18.3076   70.1407   -4.7321 O   0  0  0  0  0  0  0  0  0  0  0  0
   19.1332   72.1432   -5.6937 O   0  0  0  0  0  0  0  0  0  0  0  0
   17.6263   70.3504   -9.0946 O   0  0  0  0  0  0  0  0  0  0  0  0
   20.4687   70.5049   -8.7138 O   0  0  0  0  0  0  0  0  0  0  0  0
   16.2011   70.1153   -6.5860 O   0  0  0  0  0  0  0  0  0  0  0  0
   18.2568   70.3873   -7.8114 C   0  0  1  0  0  0  0  0  0  0  0  0
   19.5286   71.2300   -7.9261 C   0  0  1  0  0  0  0  0  0  0  0  0
   17.2928   71.0036   -6.7993 C   0  0  2  0  0  0  0  0  0  0  0  0
   20.1158   71.5378   -6.5420 C   0  0  1  0  0  0  0  0  0  0  0  0
   17.9893   71.3156   -5.4735 C   0  0  1  0  0  0  0  0  0  0  0  0
   18.2329   69.9597   -9.7418 H   0  0  0  0  0  0  0  0  0  0  0  0
   20.0854   70.3165   -9.5849 H   0  0  0  0  0  0  0  0  0  0  0  0
   15.7684   69.9260   -7.4326 H   0  0  0  0  0  0  0  0  0  0  0  0
   20.8756   73.7642   -6.1239 O   0  0  0  0  0  0  0  0  0  0  0  0
   21.2933   72.5069   -6.6230 C   0  0  0  0  0  0  0  0  0  0  0  0
   21.6149   74.3911   -6.1690 H   0  0  0  0  0  0  0  0  0  0  0  0
 25 28  1  0
 25 24  1  0
 25 26  1  6
 25 27  2  0
  1  4  1  0
  1 24  1  0
  1  2  1  1
  1  3  2  0
  6 11  1  0
  6 12  1  0
 29 36  1  0
 29 37  1  0
  9  7  1  6
  7 13  1  0
 10  8  1  1
  8 14  1  0
 37 28  1  6
  4  5  1  0
 33 30  1  6
 30 38  1  0
 34 31  1  6
 31 39  1  0
 35 32  1  1
 32 40  1  0
 41 42  1  0
 41 43  1  0
 15 19  2  0
 16 22  2  0
 12 17  1  6
 17 19  1  0
 17 20  1  0
 18 19  1  0
 18 22  1  0
 18 23  1  0
  9 10  1  0
  9 11  1  0
 10 12  1  0
 11  5  1  6
 33 34  1  0
 33 35  1  0
 34 36  1  0
 35 37  1  0
 36 42  1  6
 20 21  2  0
 21 22  1  0
M  CHG  2   2  -1  26  -1
M  END
