1
     RDKit          3D

 43 45  0  0  0  0  0  0  0  0999 V2000
   18.7476   73.9061   -7.7868 P   0  0  2  0  0  0  0  0  0  0  0  0
   17.3348   73.6113   -7.0548 O   0  0  0  0  0  0  0  0  0  0  0  0
   18.8766   75.2752   -8.3874 O   0  0  0  0  0  0  0  0  0  0  0  0
   18.9178   72.6688   -8.8154 O   0  0  0  0  0  0  0  0  0  0  0  0
   19.5718   71.4977   -8.3621 C   0  0  0  0  0  0  0  0  0  0  0  0
   18.4831   69.4453   -7.7457 O   0  0  0  0  0  0  0  0  0  0  0  0
   17.1571   69.5587  -10.4327 O   0  0  0  0  0  0  0  0  0  0  0  0
   15.1997   70.4636   -8.7637 O   0  0  0  0  0  0  0  0  0  0  0  0
   17.4960   70.6256   -9.5466 C   0  0  1  0  0  0  0  0  0  0  0  0
   16.5428   70.6530   -8.3705 C   0  0  2  0  0  0  0  0  0  0  0  0
   18.8184   70.2780   -8.8769 C   0  0  1  0  0  0  0  0  0  0  0  0
   17.0673   69.5139   -7.5130 C   0  0  2  0  0  0  0  0  0  0  0  0
   16.3153   69.7581  -10.8725 H   0  0  0  0  0  0  0  0  0  0  0  0
   14.9128   71.2149   -9.3070 H   0  0  0  0  0  0  0  0  0  0  0  0
   14.6749   68.8394   -6.1721 O   0  0  0  0  0  0  0  0  0  0  0  0
   16.2838   70.3875   -2.1399 O   0  0  0  0  0  0  0  0  0  0  0  0
   16.8342   69.7297   -6.1130 N   0  0  0  0  0  0  0  0  0  0  0  0
   15.4781   69.6120   -4.1653 N   0  0  0  0  0  0  0  0  0  0  0  0
   15.5971   69.3550   -5.5375 C   0  0  0  0  0  0  0  0  0  0  0  0
   17.8243   70.3046   -5.3255 C   0  0  0  0  0  0  0  0  0  0  0  0
   17.6963   70.5433   -4.0188 C   0  0  0  0  0  0  0  0  0  0  0  0
   16.4342   70.1822   -3.3405 C   0  0  0  0  0  0  0  0  0  0  0  0
   14.6249   69.3615   -3.7427 H   0  0  0  0  0  0  0  0  0  0  0  0
   19.8303   73.5718   -6.6340 O   0  0  0  0  0  0  0  0  0  0  0  0
   21.3044   74.1743   -6.3555 P   0  0  2  0  0  0  0  0  0  0  0  0
   21.0589   75.7742   -6.3701 O   0  0  0  0  0  0  0  0  0  0  0  0
   22.3550   73.7010   -7.3179 O   0  0  0  0  0  0  0  0  0  0  0  0
   21.6050   73.8225   -4.8100 O   0  0  0  0  0  0  0  0  0  0  0  0
   20.5265   72.2007   -3.4626 O   0  0  0  0  0  0  0  0  0  0  0  0
   21.6969   74.9887   -0.6475 O   0  0  0  0  0  0  0  0  0  0  0  0
   20.5756   75.8473   -3.2048 O   0  0  0  0  0  0  0  0  0  0  0  0
   23.1505   72.4854   -0.9139 O   0  0  0  0  0  0  0  0  0  0  0  0
   21.7952   74.2392   -1.8585 C   0  0  2  0  0  0  0  0  0  0  0  0
   20.5660   74.5070   -2.7273 C   0  0  2  0  0  0  0  0  0  0  0  0
   21.8746   72.7557   -1.4913 C   0  0  1  0  0  0  0  0  0  0  0  0
   20.5220   73.5530   -3.9217 C   0  0  1  0  0  0  0  0  0  0  0  0
   21.6969   71.8676   -2.7194 C   0  0  1  0  0  0  0  0  0  0  0  0
   21.6452   75.9349   -0.8559 H   0  0  0  0  0  0  0  0  0  0  0  0
   20.6038   76.4581   -2.4521 H   0  0  0  0  0  0  0  0  0  0  0  0
   23.2763   73.0444   -0.1313 H   0  0  0  0  0  0  0  0  0  0  0  0
   21.9999   70.1917   -1.1066 O   0  0  0  0  0  0  0  0  0  0  0  0
   20.8287   69.6317   -2.9811 O   0  0  0  0  0  0  0  0  0  0  0  0
   21.4470   70.4504   -2.3175 C   0  0  0  0  0  0  0  0  0  0  0  0
  1  4  1  0
  1 24  1  0
  1  2  1  1
  1  3  2  0
 25 28  1  0
 25 24  1  0
 25 26  1  1
 25 27  2  0
  6 11  1  0
  6 12  1  0
 29 36  1  0
 29 37  1  0
  9  7  1  6
  7 13  1  0
 10  8  1  6
  8 14  1  0
  4  5  1  0
 36 28  1  6
 33 30  1  1
 30 38  1  0
 34 31  1  6
 31 39  1  0
 35 32  1  6
 32 40  1  0
 41 43  1  0
 15 19  2  0
 42 43  2  0
 16 22  2  0
 12 17  1  1
 17 19  1  0
 17 20  1  0
 18 19  1  0
 18 22  1  0
 18 23  1  0
  9 10  1  0
  9 11  1  0
 10 12  1  0
 11  5  1  1
 33 34  1  0
 33 35  1  0
 34 36  1  0
 35 37  1  0
 37 43  1  1
 20 21  2  0
 21 22  1  0
M  CHG  3   2  -1  26  -1  41  -1
M  END
>  <COMPND>  (1) 
    udp_gluA.pdb 

>  <AUTHOR>  (1) 
    GENERATED BY OPEN BABEL 3.1.1

>  <MASTER>  (1) 
        0    0    0    0    0    0    0    0   56    0   56    0

>  <minimizedAffinity>  (1) 
-8.30346

>  <CNNscore>  (1) 
0.8288937211

>  <CNNaffinity>  (1) 
4.7319822311

>  <CNN_VS>  (1) 
3.9223103523

>  <CNNaffinity_variance>  (1) 
0.5425657630

$$$$
2
     RDKit          3D

 43 45  0  0  0  0  0  0  0  0999 V2000
   17.8997   70.2802   -5.6141 P   0  0  2  0  0  0  0  0  0  0  0  0
   17.4880   68.8712   -4.9328 O   0  0  0  0  0  0  0  0  0  0  0  0
   16.7536   71.2079   -5.8930 O   0  0  0  0  0  0  0  0  0  0  0  0
   18.7819   69.8472   -6.8994 O   0  0  0  0  0  0  0  0  0  0  0  0
   18.1423   69.7569   -8.1592 C   0  0  0  0  0  0  0  0  0  0  0  0
   17.9109   71.2315  -10.0433 O   0  0  0  0  0  0  0  0  0  0  0  0
   20.6673   72.2086   -9.3806 O   0  0  0  0  0  0  0  0  0  0  0  0
   19.0762   74.1659   -8.3446 O   0  0  0  0  0  0  0  0  0  0  0  0
   19.6178   71.8008   -8.5027 C   0  0  1  0  0  0  0  0  0  0  0  0
   18.5405   72.8630   -8.4447 C   0  0  2  0  0  0  0  0  0  0  0  0
   18.8837   70.6380   -9.1564 C   0  0  1  0  0  0  0  0  0  0  0  0
   17.8008   72.6338   -9.7517 C   0  0  2  0  0  0  0  0  0  0  0  0
   21.1508   72.9508   -8.9842 H   0  0  0  0  0  0  0  0  0  0  0  0
   19.5366   74.2618   -7.4956 H   0  0  0  0  0  0  0  0  0  0  0  0
   16.4007   74.1047  -11.7145 O   0  0  0  0  0  0  0  0  0  0  0  0
   12.4726   73.9229   -9.3102 O   0  0  0  0  0  0  0  0  0  0  0  0
   16.4116   72.9848   -9.6641 N   0  0  0  0  0  0  0  0  0  0  0  0
   14.4459   74.0136  -10.5147 N   0  0  0  0  0  0  0  0  0  0  0  0
   15.8039   73.7263  -10.7048 C   0  0  0  0  0  0  0  0  0  0  0  0
   15.6660   72.5944   -8.5584 C   0  0  0  0  0  0  0  0  0  0  0  0
   14.3723   72.8757   -8.3913 C   0  0  0  0  0  0  0  0  0  0  0  0
   13.6623   73.6476   -9.4322 C   0  0  0  0  0  0  0  0  0  0  0  0
   14.0015   74.5307  -11.2250 H   0  0  0  0  0  0  0  0  0  0  0  0
   19.0077   70.8666   -4.5937 O   0  0  0  0  0  0  0  0  0  0  0  0
   19.5617   72.3700   -4.3779 P   0  0  2  0  0  0  0  0  0  0  0  0
   18.2472   73.1832   -3.8971 O   0  0  0  0  0  0  0  0  0  0  0  0
   20.2440   72.9535   -5.5811 O   0  0  0  0  0  0  0  0  0  0  0  0
   20.4888   72.2794   -3.0608 O   0  0  0  0  0  0  0  0  0  0  0  0
   22.5907   72.9818   -3.8960 O   0  0  0  0  0  0  0  0  0  0  0  0
   23.2957   72.8768    0.1734 O   0  0  0  0  0  0  0  0  0  0  0  0
   21.7659   70.7504   -1.1199 O   0  0  0  0  0  0  0  0  0  0  0  0
   22.9228   75.4236   -1.1777 O   0  0  0  0  0  0  0  0  0  0  0  0
   22.5176   73.0545   -1.0102 C   0  0  2  0  0  0  0  0  0  0  0  0
   22.5011   71.7529   -1.8121 C   0  0  2  0  0  0  0  0  0  0  0  0
   23.1554   74.1774   -1.8313 C   0  0  1  0  0  0  0  0  0  0  0  0
   21.8746   71.9674   -3.1906 C   0  0  1  0  0  0  0  0  0  0  0  0
   22.5636   74.2455   -3.2362 C   0  0  1  0  0  0  0  0  0  0  0  0
   22.9092   72.1678    0.7112 H   0  0  0  0  0  0  0  0  0  0  0  0
   22.1578   70.6093   -0.2441 H   0  0  0  0  0  0  0  0  0  0  0  0
   23.2945   75.3935   -0.2823 H   0  0  0  0  0  0  0  0  0  0  0  0
   24.5458   75.4728   -3.4938 O   0  0  0  0  0  0  0  0  0  0  0  0
   23.1082   75.4355   -5.2632 O   0  0  0  0  0  0  0  0  0  0  0  0
   23.4027   75.1056   -4.1242 C   0  0  0  0  0  0  0  0  0  0  0  0
  1  4  1  0
  1 24  1  0
  1  2  1  1
  1  3  2  0
 25 28  1  0
 25 24  1  0
 25 26  1  1
 25 27  2  0
  6 11  1  0
  6 12  1  0
 29 36  1  0
 29 37  1  0
  9  7  1  6
  7 13  1  0
 10  8  1  6
  8 14  1  0
  4  5  1  0
 36 28  1  1
 33 30  1  1
 30 38  1  0
 34 31  1  1
 31 39  1  0
 35 32  1  1
 32 40  1  0
 41 43  1  0
 15 19  2  0
 42 43  2  0
 16 22  2  0
 12 17  1  1
 17 19  1  0
 17 20  1  0
 18 19  1  0
 18 22  1  0
 18 23  1  0
  9 10  1  0
  9 11  1  0
 10 12  1  0
 11  5  1  1
 33 34  1  0
 33 35  1  0
 34 36  1  0
 35 37  1  0
 37 43  1  6
 20 21  2  0
 21 22  1  0
M  CHG  3   2  -1  26  -1  41  -1
M  END
>  <COMPND>  (2) 
    udp_gluA.pdb 

>  <AUTHOR>  (2) 
    GENERATED BY OPEN BABEL 3.1.1

>  <MASTER>  (2) 
        0    0    0    0    0    0    0    0   56    0   56    0

>  <minimizedAffinity>  (2) 
-7.52949

>  <CNNscore>  (2) 
0.7282815576

>  <CNNaffinity>  (2) 
4.3342537880

>  <CNN_VS>  (2) 
3.1565570831

>  <CNNaffinity_variance>  (2) 
0.1759295762

$$$$
3
     RDKit          3D

 43 45  0  0  0  0  0  0  0  0999 V2000
   19.1946   75.2181   -6.7453 P   0  0  2  0  0  0  0  0  0  0  0  0
   18.0488   75.7974   -5.7602 O   0  0  0  0  0  0  0  0  0  0  0  0
   19.3610   75.9688   -8.0340 O   0  0  0  0  0  0  0  0  0  0  0  0
   18.8269   73.6490   -6.8887 O   0  0  0  0  0  0  0  0  0  0  0  0
   18.2477   73.1982   -8.0994 C   0  0  0  0  0  0  0  0  0  0  0  0
   18.7164   70.9111   -7.5271 O   0  0  0  0  0  0  0  0  0  0  0  0
   19.4054   70.5234  -10.4196 O   0  0  0  0  0  0  0  0  0  0  0  0
   16.8917   69.4784  -10.2606 O   0  0  0  0  0  0  0  0  0  0  0  0
   18.3934   71.3425   -9.8337 C   0  0  1  0  0  0  0  0  0  0  0  0
   17.2480   70.4859   -9.3372 C   0  0  2  0  0  0  0  0  0  0  0  0
   18.9467   71.9174   -8.5369 C   0  0  1  0  0  0  0  0  0  0  0  0
   17.8134   69.9214   -8.0451 C   0  0  2  0  0  0  0  0  0  0  0  0
   19.0750   70.1448  -11.2498 H   0  0  0  0  0  0  0  0  0  0  0  0
   16.5372   69.8885  -11.0657 H   0  0  0  0  0  0  0  0  0  0  0  0
   15.1789   70.9298   -8.1829 O   0  0  0  0  0  0  0  0  0  0  0  0
   13.9865   68.8627   -4.2397 O   0  0  0  0  0  0  0  0  0  0  0  0
   16.7941   69.6623   -7.0680 N   0  0  0  0  0  0  0  0  0  0  0  0
   14.5878   69.9002   -6.2183 N   0  0  0  0  0  0  0  0  0  0  0  0
   15.5027   70.2171   -7.2310 C   0  0  0  0  0  0  0  0  0  0  0  0
   17.0771   68.8661   -5.9649 C   0  0  0  0  0  0  0  0  0  0  0  0
   16.1946   68.5727   -5.0079 C   0  0  0  0  0  0  0  0  0  0  0  0
   14.8227   69.1134   -5.1023 C   0  0  0  0  0  0  0  0  0  0  0  0
   13.6826   70.2766   -6.3089 H   0  0  0  0  0  0  0  0  0  0  0  0
   20.5077   75.1990   -5.8029 O   0  0  0  0  0  0  0  0  0  0  0  0
   21.8461   74.2943   -5.8656 P   0  0  2  0  0  0  0  0  0  0  0  0
   23.0202   75.3445   -5.4930 O   0  0  0  0  0  0  0  0  0  0  0  0
   22.0463   73.5805   -7.1711 O   0  0  0  0  0  0  0  0  0  0  0  0
   21.7449   73.3241   -4.5807 O   0  0  0  0  0  0  0  0  0  0  0  0
   19.8162   72.6511   -3.3822 O   0  0  0  0  0  0  0  0  0  0  0  0
   22.7033   72.5977   -0.4275 O   0  0  0  0  0  0  0  0  0  0  0  0
   22.6159   74.7749   -2.3734 O   0  0  0  0  0  0  0  0  0  0  0  0
   21.7497   70.1056   -1.5812 O   0  0  0  0  0  0  0  0  0  0  0  0
   22.1946   72.4671   -1.7550 C   0  0  2  0  0  0  0  0  0  0  0  0
   21.5942   73.7988   -2.2063 C   0  0  2  0  0  0  0  0  0  0  0  0
   21.1219   71.3757   -1.7451 C   0  0  1  0  0  0  0  0  0  0  0  0
   20.8378   73.6387   -3.5258 C   0  0  1  0  0  0  0  0  0  0  0  0
   20.3282   71.3629   -3.0484 C   0  0  1  0  0  0  0  0  0  0  0  0
   23.3868   73.2860   -0.4092 H   0  0  0  0  0  0  0  0  0  0  0  0
   23.1002   74.8814   -1.5400 H   0  0  0  0  0  0  0  0  0  0  0  0
   22.2584   70.1005   -0.7553 H   0  0  0  0  0  0  0  0  0  0  0  0
   19.4007   69.2170   -2.8583 O   0  0  0  0  0  0  0  0  0  0  0  0
   17.9548   70.9800   -2.8442 O   0  0  0  0  0  0  0  0  0  0  0  0
   19.0915   70.5364   -2.9082 C   0  0  0  0  0  0  0  0  0  0  0  0
  1  4  1  0
  1 24  1  0
  1  2  1  1
  1  3  2  0
 25 28  1  0
 25 24  1  0
 25 26  1  1
 25 27  2  0
  6 11  1  0
  6 12  1  0
 29 36  1  0
 29 37  1  0
  9  7  1  1
  7 13  1  0
 10  8  1  6
  8 14  1  0
  4  5  1  0
 36 28  1  6
 33 30  1  1
 30 38  1  0
 34 31  1  6
 31 39  1  0
 35 32  1  6
 32 40  1  0
 41 43  1  0
 15 19  2  0
 42 43  2  0
 16 22  2  0
 12 17  1  1
 17 19  1  0
 17 20  1  0
 18 19  1  0
 18 22  1  0
 18 23  1  0
  9 10  1  0
  9 11  1  0
 10 12  1  0
 11  5  1  1
 33 34  1  0
 33 35  1  0
 34 36  1  0
 35 37  1  0
 37 43  1  1
 20 21  2  0
 21 22  1  0
M  CHG  3   2  -1  26  -1  41  -1
M  END
>  <COMPND>  (3) 
    udp_gluA.pdb 

>  <AUTHOR>  (3) 
    GENERATED BY OPEN BABEL 3.1.1

>  <MASTER>  (3) 
        0    0    0    0    0    0    0    0   56    0   56    0

>  <minimizedAffinity>  (3) 
-7.98314

>  <CNNscore>  (3) 
0.5842561126

>  <CNNaffinity>  (3) 
4.3891606331

>  <CNN_VS>  (3) 
2.5643939972

>  <CNNaffinity_variance>  (3) 
0.7344240546

$$$$
4
     RDKit          3D

 43 45  0  0  0  0  0  0  0  0999 V2000
   18.8160   73.9608   -7.9378 P   0  0  2  0  0  0  0  0  0  0  0  0
   17.4327   74.6374   -8.4352 O   0  0  0  0  0  0  0  0  0  0  0  0
   19.9496   74.9204   -7.7235 O   0  0  0  0  0  0  0  0  0  0  0  0
   19.0844   72.7863   -9.0178 O   0  0  0  0  0  0  0  0  0  0  0  0
   19.7550   71.6149   -8.5903 C   0  0  0  0  0  0  0  0  0  0  0  0
   18.8722   69.4486   -8.0376 O   0  0  0  0  0  0  0  0  0  0  0  0
   17.2024   69.7026  -10.5152 O   0  0  0  0  0  0  0  0  0  0  0  0
   15.4324   70.3272   -8.5371 O   0  0  0  0  0  0  0  0  0  0  0  0
   17.5941   70.7099   -9.5823 C   0  0  1  0  0  0  0  0  0  0  0  0
   16.8027   70.5721   -8.2990 C   0  0  2  0  0  0  0  0  0  0  0  0
   19.0100   70.3959   -9.1188 C   0  0  1  0  0  0  0  0  0  0  0  0
   17.4974   69.4016   -7.6243 C   0  0  2  0  0  0  0  0  0  0  0  0
   16.3006   69.8819  -10.8256 H   0  0  0  0  0  0  0  0  0  0  0  0
   15.0356   71.1014   -8.9674 H   0  0  0  0  0  0  0  0  0  0  0  0
   15.1643   68.9484   -6.0985 O   0  0  0  0  0  0  0  0  0  0  0  0
   17.3839   69.7310   -2.1355 O   0  0  0  0  0  0  0  0  0  0  0  0
   17.4374   69.4803   -6.1921 N   0  0  0  0  0  0  0  0  0  0  0  0
   16.2718   69.3396   -4.1262 N   0  0  0  0  0  0  0  0  0  0  0  0
   16.2155   69.2348   -5.5223 C   0  0  0  0  0  0  0  0  0  0  0  0
   18.5796   69.7958   -5.4664 C   0  0  0  0  0  0  0  0  0  0  0  0
   18.6178   69.8920   -4.1360 C   0  0  0  0  0  0  0  0  0  0  0  0
   17.3834   69.6512   -3.3602 C   0  0  0  0  0  0  0  0  0  0  0  0
   15.4328   69.1750   -3.6380 H   0  0  0  0  0  0  0  0  0  0  0  0
   18.3663   73.1443   -6.6172 O   0  0  0  0  0  0  0  0  0  0  0  0
   17.8299   73.6598   -5.1819 P   0  0  2  0  0  0  0  0  0  0  0  0
   16.6085   72.6479   -4.8583 O   0  0  0  0  0  0  0  0  0  0  0  0
   17.4538   75.1129   -5.1508 O   0  0  0  0  0  0  0  0  0  0  0  0
   18.9889   73.2457   -4.1390 O   0  0  0  0  0  0  0  0  0  0  0  0
   20.1070   74.5581   -2.5152 O   0  0  0  0  0  0  0  0  0  0  0  0
   23.0571   71.8805   -3.6087 O   0  0  0  0  0  0  0  0  0  0  0  0
   21.3306   73.0894   -5.6316 O   0  0  0  0  0  0  0  0  0  0  0  0
   21.6629   71.5622   -1.0777 O   0  0  0  0  0  0  0  0  0  0  0  0
   21.7207   72.3190   -3.3644 C   0  0  2  0  0  0  0  0  0  0  0  0
   21.3973   73.5056   -4.2726 C   0  0  2  0  0  0  0  0  0  0  0  0
   21.6195   72.7311   -1.8940 C   0  0  1  0  0  0  0  0  0  0  0  0
   20.0648   74.1464   -3.8820 C   0  0  1  0  0  0  0  0  0  0  0  0
   20.3171   73.4747   -1.6123 C   0  0  1  0  0  0  0  0  0  0  0  0
   23.1453   71.6135   -4.5372 H   0  0  0  0  0  0  0  0  0  0  0  0
   22.1728   72.6816   -5.8862 H   0  0  0  0  0  0  0  0  0  0  0  0
   22.4870   71.0797   -1.2475 H   0  0  0  0  0  0  0  0  0  0  0  0
   21.4282   73.7068    0.4403 O   0  0  0  0  0  0  0  0  0  0  0  0
   19.5761   74.9948    0.1087 O   0  0  0  0  0  0  0  0  0  0  0  0
   20.3704   74.1524   -0.2818 C   0  0  0  0  0  0  0  0  0  0  0  0
  1  4  1  0
  1 24  1  0
  1  2  1  6
  1  3  2  0
 25 28  1  0
 25 24  1  0
 25 26  1  1
 25 27  2  0
  6 11  1  0
  6 12  1  0
 29 36  1  0
 29 37  1  0
  9  7  1  6
  7 13  1  0
 10  8  1  6
  8 14  1  0
  4  5  1  0
 36 28  1  1
 33 30  1  6
 30 38  1  0
 34 31  1  6
 31 39  1  0
 35 32  1  1
 32 40  1  0
 41 43  1  0
 15 19  2  0
 42 43  2  0
 16 22  2  0
 12 17  1  1
 17 19  1  0
 17 20  1  0
 18 19  1  0
 18 22  1  0
 18 23  1  0
  9 10  1  0
  9 11  1  0
 10 12  1  0
 11  5  1  1
 33 34  1  0
 33 35  1  0
 34 36  1  0
 35 37  1  0
 37 43  1  1
 20 21  2  0
 21 22  1  0
M  CHG  3   2  -1  26  -1  41  -1
M  END
>  <COMPND>  (4) 
    udp_gluA.pdb 

>  <AUTHOR>  (4) 
    GENERATED BY OPEN BABEL 3.1.1

>  <MASTER>  (4) 
        0    0    0    0    0    0    0    0   56    0   56    0

>  <minimizedAffinity>  (4) 
-7.52983

>  <CNNscore>  (4) 
0.5289404392

>  <CNNaffinity>  (4) 
4.1797056198

>  <CNN_VS>  (4) 
2.2108154297

>  <CNNaffinity_variance>  (4) 
0.6760307550

$$$$
5
     RDKit          3D

 43 45  0  0  0  0  0  0  0  0999 V2000
   18.0174   70.8798   -8.4232 P   0  0  2  0  0  0  0  0  0  0  0  0
   18.0853   71.2068  -10.0066 O   0  0  0  0  0  0  0  0  0  0  0  0
   18.8055   69.6785   -7.9900 O   0  0  0  0  0  0  0  0  0  0  0  0
   16.4320   70.8325   -8.1039 O   0  0  0  0  0  0  0  0  0  0  0  0
   15.6892   72.0349   -8.1882 C   0  0  0  0  0  0  0  0  0  0  0  0
   14.7154   70.8997   -6.3065 O   0  0  0  0  0  0  0  0  0  0  0  0
   12.7876   73.1917   -6.1582 O   0  0  0  0  0  0  0  0  0  0  0  0
   14.5725   73.7857   -4.1840 O   0  0  0  0  0  0  0  0  0  0  0  0
   14.1717   73.1963   -6.5087 C   0  0  1  0  0  0  0  0  0  0  0  0
   15.0260   73.0089   -5.2728 C   0  0  2  0  0  0  0  0  0  0  0  0
   14.4620   71.9237   -7.2926 C   0  0  1  0  0  0  0  0  0  0  0  0
   14.8940   71.5165   -5.0215 C   0  0  2  0  0  0  0  0  0  0  0  0
   12.5781   73.9954   -5.6564 H   0  0  0  0  0  0  0  0  0  0  0  0
   14.6776   74.7277   -4.3929 H   0  0  0  0  0  0  0  0  0  0  0  0
   14.9103   70.3081   -2.4689 O   0  0  0  0  0  0  0  0  0  0  0  0
   19.4262   69.4196   -2.7172 O   0  0  0  0  0  0  0  0  0  0  0  0
   16.0601   70.9611   -4.3950 N   0  0  0  0  0  0  0  0  0  0  0  0
   17.1597   69.8676   -2.5946 N   0  0  0  0  0  0  0  0  0  0  0  0
   15.9606   70.3770   -3.1101 C   0  0  0  0  0  0  0  0  0  0  0  0
   17.2840   70.9966   -5.0522 C   0  0  0  0  0  0  0  0  0  0  0  0
   18.4183   70.5069   -4.5481 C   0  0  0  0  0  0  0  0  0  0  0  0
   18.4009   69.8803   -3.2099 C   0  0  0  0  0  0  0  0  0  0  0  0
   17.1157   69.4579   -1.7004 H   0  0  0  0  0  0  0  0  0  0  0  0
   18.4834   72.2711   -7.7450 O   0  0  0  0  0  0  0  0  0  0  0  0
   19.9177   73.0170   -7.7308 P   0  0  2  0  0  0  0  0  0  0  0  0
   19.5244   74.5781   -7.8997 O   0  0  0  0  0  0  0  0  0  0  0  0
   20.8863   72.5086   -8.7590 O   0  0  0  0  0  0  0  0  0  0  0  0
   20.4305   72.8889   -6.2067 O   0  0  0  0  0  0  0  0  0  0  0  0
   20.0476   73.7859   -4.0484 O   0  0  0  0  0  0  0  0  0  0  0  0
   24.1304   74.2736   -4.4492 O   0  0  0  0  0  0  0  0  0  0  0  0
   22.3434   74.8500   -6.6872 O   0  0  0  0  0  0  0  0  0  0  0  0
   23.0724   72.1521   -2.7667 O   0  0  0  0  0  0  0  0  0  0  0  0
   22.8677   73.6390   -4.6514 C   0  0  2  0  0  0  0  0  0  0  0  0
   21.9147   74.6074   -5.3523 C   0  0  2  0  0  0  0  0  0  0  0  0
   22.3123   73.2438   -3.2813 C   0  0  1  0  0  0  0  0  0  0  0  0
   20.4909   74.0499   -5.3801 C   0  0  1  0  0  0  0  0  0  0  0  0
   20.8497   72.8186   -3.3746 C   0  0  1  0  0  0  0  0  0  0  0  0
   24.5027   74.5337   -5.3065 H   0  0  0  0  0  0  0  0  0  0  0  0
   23.2463   75.2037   -6.6772 H   0  0  0  0  0  0  0  0  0  0  0  0
   24.0054   72.4095   -2.7024 H   0  0  0  0  0  0  0  0  0  0  0  0
   18.9384   73.1704   -2.0613 O   0  0  0  0  0  0  0  0  0  0  0  0
   20.7961   72.3777   -1.0031 O   0  0  0  0  0  0  0  0  0  0  0  0
   20.2283   72.7543   -2.0174 C   0  0  0  0  0  0  0  0  0  0  0  0
  1  4  1  0
  1 24  1  0
  1  2  1  6
  1  3  2  0
 25 28  1  0
 25 24  1  0
 25 26  1  6
 25 27  2  0
  6 11  1  0
  6 12  1  0
 29 36  1  0
 29 37  1  0
  9  7  1  1
  7 13  1  0
 10  8  1  1
  8 14  1  0
  4  5  1  0
 36 28  1  6
 33 30  1  1
 30 38  1  0
 34 31  1  6
 31 39  1  0
 35 32  1  6
 32 40  1  0
 41 43  1  0
 15 19  2  0
 42 43  2  0
 16 22  2  0
 12 17  1  6
 17 19  1  0
 17 20  1  0
 18 19  1  0
 18 22  1  0
 18 23  1  0
  9 10  1  0
  9 11  1  0
 10 12  1  0
 11  5  1  6
 33 34  1  0
 33 35  1  0
 34 36  1  0
 35 37  1  0
 37 43  1  1
 20 21  2  0
 21 22  1  0
M  CHG  3   2  -1  26  -1  41  -1
M  END
>  <COMPND>  (5) 
    udp_gluA.pdb 

>  <AUTHOR>  (5) 
    GENERATED BY OPEN BABEL 3.1.1

>  <MASTER>  (5) 
        0    0    0    0    0    0    0    0   56    0   56    0

>  <minimizedAffinity>  (5) 
-6.74940

>  <CNNscore>  (5) 
0.5267336965

>  <CNNaffinity>  (5) 
4.1018724442

>  <CNN_VS>  (5) 
2.1605944633

>  <CNNaffinity_variance>  (5) 
0.3971228004

$$$$
6
     RDKit          3D

 43 45  0  0  0  0  0  0  0  0999 V2000
   15.8247   70.3941   -3.8062 P   0  0  2  0  0  0  0  0  0  0  0  0
   16.0467   68.9349   -4.4697 O   0  0  0  0  0  0  0  0  0  0  0  0
   15.2482   70.3792   -2.4208 O   0  0  0  0  0  0  0  0  0  0  0  0
   14.9653   71.1988   -4.9161 O   0  0  0  0  0  0  0  0  0  0  0  0
   15.5912   72.2559   -5.6200 C   0  0  0  0  0  0  0  0  0  0  0  0
   16.2402   72.8768   -7.8495 O   0  0  0  0  0  0  0  0  0  0  0  0
   14.5048   70.6171   -8.7842 O   0  0  0  0  0  0  0  0  0  0  0  0
   17.0088   69.5481   -8.9372 O   0  0  0  0  0  0  0  0  0  0  0  0
   15.3247   70.7044   -7.6185 C   0  0  1  0  0  0  0  0  0  0  0  0
   16.7856   70.5757   -7.9945 C   0  0  2  0  0  0  0  0  0  0  0  0
   15.2538   72.1344   -7.1004 C   0  0  1  0  0  0  0  0  0  0  0  0
   17.0909   71.9561   -8.5508 C   0  0  2  0  0  0  0  0  0  0  0  0
   14.5341   69.7122   -9.1334 H   0  0  0  0  0  0  0  0  0  0  0  0
   16.8006   68.6897   -8.5351 H   0  0  0  0  0  0  0  0  0  0  0  0
   19.2467   71.0701  -10.1458 O   0  0  0  0  0  0  0  0  0  0  0  0
   22.3014   73.4865   -7.6813 O   0  0  0  0  0  0  0  0  0  0  0  0
   18.4598   72.3381   -8.3482 N   0  0  0  0  0  0  0  0  0  0  0  0
   20.7662   72.2736   -8.9162 N   0  0  0  0  0  0  0  0  0  0  0  0
   19.4670   71.8363   -9.2060 C   0  0  0  0  0  0  0  0  0  0  0  0
   18.7928   73.2010   -7.3112 C   0  0  0  0  0  0  0  0  0  0  0  0
   20.0357   73.6090   -7.0475 C   0  0  0  0  0  0  0  0  0  0  0  0
   21.1467   73.1304   -7.8960 C   0  0  0  0  0  0  0  0  0  0  0  0
   21.4847   71.9360   -9.4986 H   0  0  0  0  0  0  0  0  0  0  0  0
   17.2883   71.0707   -3.9193 O   0  0  0  0  0  0  0  0  0  0  0  0
   18.7666   70.4334   -3.7701 P   0  0  2  0  0  0  0  0  0  0  0  0
   19.1720   70.0782   -5.2964 O   0  0  0  0  0  0  0  0  0  0  0  0
   18.8434   69.2708   -2.8233 O   0  0  0  0  0  0  0  0  0  0  0  0
   19.7120   71.6802   -3.3773 O   0  0  0  0  0  0  0  0  0  0  0  0
   21.6455   72.7383   -4.2440 O   0  0  0  0  0  0  0  0  0  0  0  0
   22.5408   72.5195   -0.2168 O   0  0  0  0  0  0  0  0  0  0  0  0
   21.2895   70.2592   -1.5806 O   0  0  0  0  0  0  0  0  0  0  0  0
   21.7306   75.0501   -1.3961 O   0  0  0  0  0  0  0  0  0  0  0  0
   21.6923   72.6413   -1.3584 C   0  0  2  0  0  0  0  0  0  0  0  0
   21.8346   71.3980   -2.2368 C   0  0  2  0  0  0  0  0  0  0  0  0
   22.1174   73.8912   -2.1323 C   0  0  1  0  0  0  0  0  0  0  0  0
   21.1217   71.5899   -3.5761 C   0  0  1  0  0  0  0  0  0  0  0  0
   21.4595   73.9453   -3.5081 C   0  0  1  0  0  0  0  0  0  0  0  0
   22.2893   71.7317    0.2906 H   0  0  0  0  0  0  0  0  0  0  0  0
   21.7372   70.1317   -0.7298 H   0  0  0  0  0  0  0  0  0  0  0  0
   22.1426   75.0279   -0.5183 H   0  0  0  0  0  0  0  0  0  0  0  0
   21.2541   75.9687   -4.6765 O   0  0  0  0  0  0  0  0  0  0  0  0
   23.2794   74.9239   -4.7537 O   0  0  0  0  0  0  0  0  0  0  0  0
   22.1196   74.9701   -4.3719 C   0  0  0  0  0  0  0  0  0  0  0  0
  1  4  1  0
  1 24  1  0
  1  2  1  6
  1  3  2  0
 25 28  1  0
 25 24  1  0
 25 26  1  6
 25 27  2  0
  6 11  1  0
  6 12  1  0
 29 36  1  0
 29 37  1  0
  9  7  1  6
  7 13  1  0
 10  8  1  6
  8 14  1  0
  4  5  1  0
 36 28  1  1
 33 30  1  1
 30 38  1  0
 34 31  1  1
 31 39  1  0
 35 32  1  1
 32 40  1  0
 41 43  1  0
 15 19  2  0
 42 43  2  0
 16 22  2  0
 12 17  1  1
 17 19  1  0
 17 20  1  0
 18 19  1  0
 18 22  1  0
 18 23  1  0
  9 10  1  0
  9 11  1  0
 10 12  1  0
 11  5  1  1
 33 34  1  0
 33 35  1  0
 34 36  1  0
 35 37  1  0
 37 43  1  6
 20 21  2  0
 21 22  1  0
M  CHG  3   2  -1  26  -1  41  -1
M  END
>  <COMPND>  (6) 
    udp_gluA.pdb 

>  <AUTHOR>  (6) 
    GENERATED BY OPEN BABEL 3.1.1

>  <MASTER>  (6) 
        0    0    0    0    0    0    0    0   56    0   56    0

>  <minimizedAffinity>  (6) 
-8.13996

>  <CNNscore>  (6) 
0.5150917768

>  <CNNaffinity>  (6) 
4.2810964584

>  <CNN_VS>  (6) 
2.2051575184

>  <CNNaffinity_variance>  (6) 
0.4387381971

$$$$
7
     RDKit          3D

 43 45  0  0  0  0  0  0  0  0999 V2000
   20.9085   73.6555   -6.5493 P   0  0  2  0  0  0  0  0  0  0  0  0
   20.0698   74.9395   -7.0658 O   0  0  0  0  0  0  0  0  0  0  0  0
   22.3579   73.6473   -6.9381 O   0  0  0  0  0  0  0  0  0  0  0  0
   20.0371   72.3913   -7.0595 O   0  0  0  0  0  0  0  0  0  0  0  0
   19.2657   72.5334   -8.2382 C   0  0  0  0  0  0  0  0  0  0  0  0
   18.7218   70.2822   -7.5949 O   0  0  0  0  0  0  0  0  0  0  0  0
   17.4908   70.0003  -10.3146 O   0  0  0  0  0  0  0  0  0  0  0  0
   15.3185   70.4032   -8.7162 O   0  0  0  0  0  0  0  0  0  0  0  0
   17.5186   71.1350   -9.4485 C   0  0  1  0  0  0  0  0  0  0  0  0
   16.5561   70.9387   -8.2964 C   0  0  2  0  0  0  0  0  0  0  0  0
   18.8657   71.1515   -8.7389 C   0  0  1  0  0  0  0  0  0  0  0  0
   17.3295   69.9891   -7.3976 C   0  0  2  0  0  0  0  0  0  0  0  0
   16.6394   69.9684  -10.7791 H   0  0  0  0  0  0  0  0  0  0  0  0
   14.8648   71.0452   -9.2853 H   0  0  0  0  0  0  0  0  0  0  0  0
   16.4351   67.9210   -5.6948 O   0  0  0  0  0  0  0  0  0  0  0  0
   16.1243   70.7756   -2.0894 O   0  0  0  0  0  0  0  0  0  0  0  0
   17.0077   70.1641   -6.0095 N   0  0  0  0  0  0  0  0  0  0  0  0
   16.2802   69.3449   -3.9010 N   0  0  0  0  0  0  0  0  0  0  0  0
   16.5668   69.0598   -5.2425 C   0  0  0  0  0  0  0  0  0  0  0  0
   17.1313   71.4171   -5.4215 C   0  0  0  0  0  0  0  0  0  0  0  0
   16.8545   71.6733   -4.1415 C   0  0  0  0  0  0  0  0  0  0  0  0
   16.3871   70.5744   -3.2712 C   0  0  0  0  0  0  0  0  0  0  0  0
   15.9695   68.5923   -3.3475 H   0  0  0  0  0  0  0  0  0  0  0  0
   20.6389   73.6632   -4.9555 O   0  0  0  0  0  0  0  0  0  0  0  0
   21.0738   72.6190   -3.8004 P   0  0  2  0  0  0  0  0  0  0  0  0
   22.6673   72.4535   -4.0323 O   0  0  0  0  0  0  0  0  0  0  0  0
   20.3088   71.3273   -3.8182 O   0  0  0  0  0  0  0  0  0  0  0  0
   20.9469   73.4534   -2.4256 O   0  0  0  0  0  0  0  0  0  0  0  0
   22.1719   75.3460   -1.7001 O   0  0  0  0  0  0  0  0  0  0  0  0
   21.3318   73.4650    1.8810 O   0  0  0  0  0  0  0  0  0  0  0  0
   22.1537   71.9098   -0.4515 O   0  0  0  0  0  0  0  0  0  0  0  0
   19.8566   75.8457    1.1020 O   0  0  0  0  0  0  0  0  0  0  0  0
   21.0955   73.8601    0.5297 C   0  0  2  0  0  0  0  0  0  0  0  0
   22.2174   73.3285   -0.3626 C   0  0  2  0  0  0  0  0  0  0  0  0
   21.0582   75.3893    0.4838 C   0  0  1  0  0  0  0  0  0  0  0  0
   22.1243   73.9204   -1.7697 C   0  0  1  0  0  0  0  0  0  0  0  0
   21.0941   75.9045   -0.9521 C   0  0  1  0  0  0  0  0  0  0  0  0
   21.3597   72.4967    1.9348 H   0  0  0  0  0  0  0  0  0  0  0  0
   22.2119   71.5276    0.4379 H   0  0  0  0  0  0  0  0  0  0  0  0
   19.8213   75.5244    2.0166 H   0  0  0  0  0  0  0  0  0  0  0  0
   22.4012   77.6360   -1.8437 O   0  0  0  0  0  0  0  0  0  0  0  0
   20.7995   78.2165   -0.3282 O   0  0  0  0  0  0  0  0  0  0  0  0
   21.3879   77.3691   -0.9830 C   0  0  0  0  0  0  0  0  0  0  0  0
  1  4  1  0
  1 24  1  0
  1  2  1  6
  1  3  2  0
 25 28  1  0
 25 24  1  0
 25 26  1  6
 25 27  2  0
  6 11  1  0
  6 12  1  0
 29 36  1  0
 29 37  1  0
  9  7  1  6
  7 13  1  0
 10  8  1  6
  8 14  1  0
  4  5  1  0
 36 28  1  1
 33 30  1  1
 30 38  1  0
 34 31  1  6
 31 39  1  0
 35 32  1  6
 32 40  1  0
 41 43  1  0
 15 19  2  0
 42 43  2  0
 16 22  2  0
 12 17  1  1
 17 19  1  0
 17 20  1  0
 18 19  1  0
 18 22  1  0
 18 23  1  0
  9 10  1  0
  9 11  1  0
 10 12  1  0
 11  5  1  1
 33 34  1  0
 33 35  1  0
 34 36  1  0
 35 37  1  0
 37 43  1  1
 20 21  2  0
 21 22  1  0
M  CHG  3   2  -1  26  -1  41  -1
M  END
>  <COMPND>  (7) 
    udp_gluA.pdb 

>  <AUTHOR>  (7) 
    GENERATED BY OPEN BABEL 3.1.1

>  <MASTER>  (7) 
        0    0    0    0    0    0    0    0   56    0   56    0

>  <minimizedAffinity>  (7) 
-7.25815

>  <CNNscore>  (7) 
0.4769999087

>  <CNNaffinity>  (7) 
4.2049827576

>  <CNN_VS>  (7) 
2.0057764053

>  <CNNaffinity_variance>  (7) 
0.3014303744

$$$$
8
     RDKit          3D

 43 45  0  0  0  0  0  0  0  0999 V2000
   19.0045   70.3222   -3.5238 P   0  0  2  0  0  0  0  0  0  0  0  0
   18.4612   69.0122   -2.7442 O   0  0  0  0  0  0  0  0  0  0  0  0
   18.2170   71.5762   -3.2808 O   0  0  0  0  0  0  0  0  0  0  0  0
   19.1043   69.8429   -5.0660 O   0  0  0  0  0  0  0  0  0  0  0  0
   18.6119   70.7052   -6.0751 C   0  0  0  0  0  0  0  0  0  0  0  0
   16.7474   69.1904   -6.1575 O   0  0  0  0  0  0  0  0  0  0  0  0
   16.4292   70.0316   -9.0180 O   0  0  0  0  0  0  0  0  0  0  0  0
   14.4970   71.4809   -7.7522 O   0  0  0  0  0  0  0  0  0  0  0  0
   16.8292   70.8064   -7.8874 C   0  0  1  0  0  0  0  0  0  0  0  0
   15.6345   71.1023   -7.0057 C   0  0  2  0  0  0  0  0  0  0  0  0
   17.6780   69.9195   -6.9867 C   0  0  1  0  0  0  0  0  0  0  0  0
   15.4441   69.7819   -6.2790 C   0  0  2  0  0  0  0  0  0  0  0  0
   15.8855   70.5771   -9.6083 H   0  0  0  0  0  0  0  0  0  0  0  0
   14.6682   72.3272   -8.1955 H   0  0  0  0  0  0  0  0  0  0  0  0
   14.0593   67.7708   -4.8597 O   0  0  0  0  0  0  0  0  0  0  0  0
   13.3426   70.5526   -1.2553 O   0  0  0  0  0  0  0  0  0  0  0  0
   14.8852   69.9536   -4.9679 N   0  0  0  0  0  0  0  0  0  0  0  0
   13.7028   69.1585   -3.0663 N   0  0  0  0  0  0  0  0  0  0  0  0
   14.2083   68.8796   -4.3429 C   0  0  0  0  0  0  0  0  0  0  0  0
   15.0114   71.1734   -4.3144 C   0  0  0  0  0  0  0  0  0  0  0  0
   14.5243   71.4241   -3.0976 C   0  0  0  0  0  0  0  0  0  0  0  0
   13.8027   70.3556   -2.3759 C   0  0  0  0  0  0  0  0  0  0  0  0
   13.2257   68.4268   -2.6120 H   0  0  0  0  0  0  0  0  0  0  0  0
   20.5530   70.4003   -3.0666 O   0  0  0  0  0  0  0  0  0  0  0  0
   21.4071   71.6074   -2.4129 P   0  0  2  0  0  0  0  0  0  0  0  0
   22.9358   71.2169   -2.7747 O   0  0  0  0  0  0  0  0  0  0  0  0
   21.1528   71.8190   -0.9485 O   0  0  0  0  0  0  0  0  0  0  0  0
   21.0833   72.8870   -3.3404 O   0  0  0  0  0  0  0  0  0  0  0  0
   22.0729   73.2353   -5.4637 O   0  0  0  0  0  0  0  0  0  0  0  0
   20.9393   77.0700   -4.4253 O   0  0  0  0  0  0  0  0  0  0  0  0
   22.1477   75.2953   -2.4442 O   0  0  0  0  0  0  0  0  0  0  0  0
   19.4040   75.5763   -6.3906 O   0  0  0  0  0  0  0  0  0  0  0  0
   20.8417   75.6461   -4.4585 C   0  0  2  0  0  0  0  0  0  0  0  0
   22.0989   75.0324   -3.8418 C   0  0  2  0  0  0  0  0  0  0  0  0
   20.7014   75.2157   -5.9203 C   0  0  1  0  0  0  0  0  0  0  0  0
   22.1359   73.5201   -4.0657 C   0  0  1  0  0  0  0  0  0  0  0  0
   20.8750   73.7077   -6.0761 C   0  0  1  0  0  0  0  0  0  0  0  0
   21.0294   77.3667   -3.5060 H   0  0  0  0  0  0  0  0  0  0  0  0
   22.1243   76.2531   -2.2948 H   0  0  0  0  0  0  0  0  0  0  0  0
   19.2806   76.5338   -6.2968 H   0  0  0  0  0  0  0  0  0  0  0  0
   22.3766   73.4022   -7.8519 O   0  0  0  0  0  0  0  0  0  0  0  0
   20.1688   73.0262   -8.2803 O   0  0  0  0  0  0  0  0  0  0  0  0
   21.0653   73.3412   -7.5120 C   0  0  0  0  0  0  0  0  0  0  0  0
  1  4  1  0
  1 24  1  0
  1  2  1  1
  1  3  2  0
 25 28  1  0
 25 24  1  0
 25 26  1  1
 25 27  2  0
  6 11  1  0
  6 12  1  0
 29 36  1  0
 29 37  1  0
  9  7  1  6
  7 13  1  0
 10  8  1  6
  8 14  1  0
  4  5  1  0
 36 28  1  1
 33 30  1  6
 30 38  1  0
 34 31  1  1
 31 39  1  0
 35 32  1  1
 32 40  1  0
 41 43  1  0
 15 19  2  0
 42 43  2  0
 16 22  2  0
 12 17  1  1
 17 19  1  0
 17 20  1  0
 18 19  1  0
 18 22  1  0
 18 23  1  0
  9 10  1  0
  9 11  1  0
 10 12  1  0
 11  5  1  1
 33 34  1  0
 33 35  1  0
 34 36  1  0
 35 37  1  0
 37 43  1  6
 20 21  2  0
 21 22  1  0
M  CHG  3   2  -1  26  -1  41  -1
M  END
>  <COMPND>  (8) 
    udp_gluA.pdb 

>  <AUTHOR>  (8) 
    GENERATED BY OPEN BABEL 3.1.1

>  <MASTER>  (8) 
        0    0    0    0    0    0    0    0   56    0   56    0

>  <minimizedAffinity>  (8) 
-7.15054

>  <CNNscore>  (8) 
0.4702892900

>  <CNNaffinity>  (8) 
4.1779179573

>  <CNN_VS>  (8) 
1.9648300409

>  <CNNaffinity_variance>  (8) 
0.1890582889

$$$$
9
     RDKit          3D

 43 45  0  0  0  0  0  0  0  0999 V2000
   19.8190   76.0005   -6.7283 P   0  0  2  0  0  0  0  0  0  0  0  0
   18.8146   77.0739   -6.0517 O   0  0  0  0  0  0  0  0  0  0  0  0
   20.5508   76.4949   -7.9415 O   0  0  0  0  0  0  0  0  0  0  0  0
   18.8956   74.6905   -6.9501 O   0  0  0  0  0  0  0  0  0  0  0  0
   17.5647   74.8695   -7.3986 C   0  0  0  0  0  0  0  0  0  0  0  0
   17.7333   72.7893   -8.5910 O   0  0  0  0  0  0  0  0  0  0  0  0
   16.0141   74.0669  -10.6895 O   0  0  0  0  0  0  0  0  0  0  0  0
   14.2348   72.5147   -9.3254 O   0  0  0  0  0  0  0  0  0  0  0  0
   15.9698   74.2173   -9.2703 C   0  0  1  0  0  0  0  0  0  0  0  0
   15.3722   72.9820   -8.6308 C   0  0  2  0  0  0  0  0  0  0  0  0
   17.4002   74.1854   -8.7496 C   0  0  1  0  0  0  0  0  0  0  0  0
   16.5339   72.0046   -8.6865 C   0  0  2  0  0  0  0  0  0  0  0  0
   15.1114   74.0842  -11.0451 H   0  0  0  0  0  0  0  0  0  0  0  0
   13.5235   73.1718   -9.2601 H   0  0  0  0  0  0  0  0  0  0  0  0
   17.9144   69.5407   -8.6888 O   0  0  0  0  0  0  0  0  0  0  0  0
   16.3587   68.4567   -4.4878 O   0  0  0  0  0  0  0  0  0  0  0  0
   16.5070   71.0594   -7.6064 N   0  0  0  0  0  0  0  0  0  0  0  0
   17.1374   69.0027   -6.5969 N   0  0  0  0  0  0  0  0  0  0  0  0
   17.2357   69.8507   -7.7079 C   0  0  0  0  0  0  0  0  0  0  0  0
   15.7670   71.3339   -6.4627 C   0  0  0  0  0  0  0  0  0  0  0  0
   15.6831   70.5158   -5.4118 C   0  0  0  0  0  0  0  0  0  0  0  0
   16.4139   69.2318   -5.4377 C   0  0  0  0  0  0  0  0  0  0  0  0
   17.6345   68.1543   -6.6451 H   0  0  0  0  0  0  0  0  0  0  0  0
   20.7723   75.5688   -5.4964 O   0  0  0  0  0  0  0  0  0  0  0  0
   22.0711   74.6074   -5.4456 P   0  0  2  0  0  0  0  0  0  0  0  0
   23.2986   75.6518   -5.2950 O   0  0  0  0  0  0  0  0  0  0  0  0
   22.1928   73.6746   -6.6156 O   0  0  0  0  0  0  0  0  0  0  0  0
   21.9818   73.8743   -4.0114 O   0  0  0  0  0  0  0  0  0  0  0  0
   20.0004   72.6450   -3.5970 O   0  0  0  0  0  0  0  0  0  0  0  0
   21.7188   72.7606    0.1582 O   0  0  0  0  0  0  0  0  0  0  0  0
   21.7216   75.1339   -1.5452 O   0  0  0  0  0  0  0  0  0  0  0  0
   21.8249   70.3219   -1.4206 O   0  0  0  0  0  0  0  0  0  0  0  0
   21.7068   72.7236   -1.2688 C   0  0  2  0  0  0  0  0  0  0  0  0
   20.9729   73.9524   -1.8064 C   0  0  2  0  0  0  0  0  0  0  0  0
   20.9897   71.4432   -1.7027 C   0  0  1  0  0  0  0  0  0  0  0  0
   20.7387   73.8340   -3.3130 C   0  0  1  0  0  0  0  0  0  0  0  0
   20.6800   71.4571   -3.1968 C   0  0  1  0  0  0  0  0  0  0  0  0
   22.1697   73.5659    0.4572 H   0  0  0  0  0  0  0  0  0  0  0  0
   21.8741   75.2152   -0.5910 H   0  0  0  0  0  0  0  0  0  0  0  0
   22.0296   70.3015   -0.4727 H   0  0  0  0  0  0  0  0  0  0  0  0
   19.2388   70.5478   -4.8086 O   0  0  0  0  0  0  0  0  0  0  0  0
   19.3731   69.4671   -2.8053 O   0  0  0  0  0  0  0  0  0  0  0  0
   19.7061   70.3794   -3.5468 C   0  0  0  0  0  0  0  0  0  0  0  0
  1  4  1  0
  1 24  1  0
  1  2  1  1
  1  3  2  0
 25 28  1  0
 25 24  1  0
 25 26  1  1
 25 27  2  0
  6 11  1  0
  6 12  1  0
 29 36  1  0
 29 37  1  0
  9  7  1  6
  7 13  1  0
 10  8  1  6
  8 14  1  0
  4  5  1  0
 36 28  1  6
 33 30  1  1
 30 38  1  0
 34 31  1  6
 31 39  1  0
 35 32  1  6
 32 40  1  0
 41 43  1  0
 15 19  2  0
 42 43  2  0
 16 22  2  0
 12 17  1  1
 17 19  1  0
 17 20  1  0
 18 19  1  0
 18 22  1  0
 18 23  1  0
  9 10  1  0
  9 11  1  0
 10 12  1  0
 11  5  1  1
 33 34  1  0
 33 35  1  0
 34 36  1  0
 35 37  1  0
 37 43  1  1
 20 21  2  0
 21 22  1  0
M  CHG  3   2  -1  26  -1  41  -1
M  END
>  <COMPND>  (9) 
    udp_gluA.pdb 

>  <AUTHOR>  (9) 
    GENERATED BY OPEN BABEL 3.1.1

>  <MASTER>  (9) 
        0    0    0    0    0    0    0    0   56    0   56    0

>  <minimizedAffinity>  (9) 
-6.95029

>  <CNNscore>  (9) 
0.4292565584

>  <CNNaffinity>  (9) 
4.2142953873

>  <CNN_VS>  (9) 
1.8090139627

>  <CNNaffinity_variance>  (9) 
0.3560002446

$$$$
10
     RDKit          3D

 43 45  0  0  0  0  0  0  0  0999 V2000
   20.9950   71.4696   -2.1314 P   0  0  2  0  0  0  0  0  0  0  0  0
   22.2642   70.9046   -1.3015 O   0  0  0  0  0  0  0  0  0  0  0  0
   20.1606   72.4813   -1.4020 O   0  0  0  0  0  0  0  0  0  0  0  0
   20.2189   70.1336   -2.6116 O   0  0  0  0  0  0  0  0  0  0  0  0
   19.5143   70.1652   -3.8392 C   0  0  0  0  0  0  0  0  0  0  0  0
   17.6385   71.2942   -4.8314 O   0  0  0  0  0  0  0  0  0  0  0  0
   16.0399   70.2917   -2.5010 O   0  0  0  0  0  0  0  0  0  0  0  0
   15.3510   68.5551   -4.4874 O   0  0  0  0  0  0  0  0  0  0  0  0
   17.1032   69.6537   -3.2088 C   0  0  1  0  0  0  0  0  0  0  0  0
   16.6189   69.1728   -4.5602 C   0  0  2  0  0  0  0  0  0  0  0  0
   18.1174   70.7216   -3.5953 C   0  0  1  0  0  0  0  0  0  0  0  0
   16.5961   70.4617   -5.3640 C   0  0  2  0  0  0  0  0  0  0  0  0
   15.3792   69.6292   -2.2435 H   0  0  0  0  0  0  0  0  0  0  0  0
   15.4183   67.7392   -3.9659 H   0  0  0  0  0  0  0  0  0  0  0  0
   14.8326   71.2225   -7.4347 O   0  0  0  0  0  0  0  0  0  0  0  0
   17.6454   69.5640  -10.6876 O   0  0  0  0  0  0  0  0  0  0  0  0
   16.8428   70.2408   -6.7609 N   0  0  0  0  0  0  0  0  0  0  0  0
   16.2348   70.3948   -9.0528 N   0  0  0  0  0  0  0  0  0  0  0  0
   15.8920   70.6614   -7.7207 C   0  0  0  0  0  0  0  0  0  0  0  0
   18.0154   69.6160   -7.1678 C   0  0  0  0  0  0  0  0  0  0  0  0
   18.3282   69.3689   -8.4413 C   0  0  0  0  0  0  0  0  0  0  0  0
   17.3883   69.7758   -9.5064 C   0  0  0  0  0  0  0  0  0  0  0  0
   15.5874   70.6766   -9.7390 H   0  0  0  0  0  0  0  0  0  0  0  0
   21.6670   72.0106   -3.4984 O   0  0  0  0  0  0  0  0  0  0  0  0
   21.7643   73.5016   -4.1156 P   0  0  2  0  0  0  0  0  0  0  0  0
   22.8812   73.3489   -5.2772 O   0  0  0  0  0  0  0  0  0  0  0  0
   22.0665   74.5685   -3.1035 O   0  0  0  0  0  0  0  0  0  0  0  0
   20.3756   73.7070   -4.9105 O   0  0  0  0  0  0  0  0  0  0  0  0
   19.9044   74.2264   -7.1726 O   0  0  0  0  0  0  0  0  0  0  0  0
   16.8870   76.2448   -5.2004 O   0  0  0  0  0  0  0  0  0  0  0  0
   19.6158   76.2746   -4.1579 O   0  0  0  0  0  0  0  0  0  0  0  0
   16.3113   73.7595   -6.5943 O   0  0  0  0  0  0  0  0  0  0  0  0
   17.8362   75.1988   -5.4076 C   0  0  2  0  0  0  0  0  0  0  0  0
   19.2468   75.7874   -5.4429 C   0  0  2  0  0  0  0  0  0  0  0  0
   17.5090   74.5203   -6.7397 C   0  0  1  0  0  0  0  0  0  0  0  0
   20.2662   74.7386   -5.8896 C   0  0  1  0  0  0  0  0  0  0  0  0
   18.6314   73.5841   -7.1784 C   0  0  1  0  0  0  0  0  0  0  0  0
   17.0751   76.6905   -4.3595 H   0  0  0  0  0  0  0  0  0  0  0  0
   18.9731   76.9403   -3.8681 H   0  0  0  0  0  0  0  0  0  0  0  0
   15.5891   74.3437   -6.3151 H   0  0  0  0  0  0  0  0  0  0  0  0
   19.5753   72.5625   -9.0670 O   0  0  0  0  0  0  0  0  0  0  0  0
   17.4619   73.3914   -9.2800 O   0  0  0  0  0  0  0  0  0  0  0  0
   18.4624   73.1873   -8.6089 C   0  0  0  0  0  0  0  0  0  0  0  0
  1  4  1  0
  1 24  1  0
  1  2  1  1
  1  3  2  0
 25 28  1  0
 25 24  1  0
 25 26  1  6
 25 27  2  0
  6 11  1  0
  6 12  1  0
 29 36  1  0
 29 37  1  0
  9  7  1  1
  7 13  1  0
 10  8  1  1
  8 14  1  0
  4  5  1  0
 36 28  1  1
 33 30  1  6
 30 38  1  0
 34 31  1  1
 31 39  1  0
 35 32  1  1
 32 40  1  0
 41 43  1  0
 15 19  2  0
 42 43  2  0
 16 22  2  0
 12 17  1  6
 17 19  1  0
 17 20  1  0
 18 19  1  0
 18 22  1  0
 18 23  1  0
  9 10  1  0
  9 11  1  0
 10 12  1  0
 11  5  1  6
 33 34  1  0
 33 35  1  0
 34 36  1  0
 35 37  1  0
 37 43  1  6
 20 21  2  0
 21 22  1  0
M  CHG  3   2  -1  26  -1  41  -1
M  END
>  <COMPND>  (10) 
    udp_gluA.pdb 

>  <AUTHOR>  (10) 
    GENERATED BY OPEN BABEL 3.1.1

>  <MASTER>  (10) 
        0    0    0    0    0    0    0    0   56    0   56    0

>  <minimizedAffinity>  (10) 
-7.19514

>  <CNNscore>  (10) 
0.4161039889

>  <CNNaffinity>  (10) 
3.9509804249

>  <CNN_VS>  (10) 
1.6440187693

>  <CNNaffinity_variance>  (10) 
0.8529547453

$$$$
11
     RDKit          3D

 43 45  0  0  0  0  0  0  0  0999 V2000
   21.2047   73.7490   -5.1451 P   0  0  2  0  0  0  0  0  0  0  0  0
   21.8543   73.1528   -6.5021 O   0  0  0  0  0  0  0  0  0  0  0  0
   21.3290   75.2357   -4.9832 O   0  0  0  0  0  0  0  0  0  0  0  0
   21.8700   72.8563   -3.9711 O   0  0  0  0  0  0  0  0  0  0  0  0
   22.0090   73.4280   -2.6833 C   0  0  0  0  0  0  0  0  0  0  0  0
   21.1832   72.7219   -0.5392 O   0  0  0  0  0  0  0  0  0  0  0  0
   18.5344   73.8315   -1.4017 O   0  0  0  0  0  0  0  0  0  0  0  0
   19.5017   75.7947    0.2250 O   0  0  0  0  0  0  0  0  0  0  0  0
   19.8493   74.3167   -1.6741 C   0  0  1  0  0  0  0  0  0  0  0  0
   20.4343   74.9674   -0.4386 C   0  0  2  0  0  0  0  0  0  0  0  0
   20.7637   73.1142   -1.8641 C   0  0  1  0  0  0  0  0  0  0  0  0
   20.8401   73.7612    0.3910 C   0  0  2  0  0  0  0  0  0  0  0  0
   17.9320   74.5819   -1.2765 H   0  0  0  0  0  0  0  0  0  0  0  0
   19.2755   76.5479   -0.3438 H   0  0  0  0  0  0  0  0  0  0  0  0
   20.6751   74.8284    3.0007 O   0  0  0  0  0  0  0  0  0  0  0  0
   25.2543   74.7497    3.5192 O   0  0  0  0  0  0  0  0  0  0  0  0
   21.9735   74.0295    1.2302 N   0  0  0  0  0  0  0  0  0  0  0  0
   22.9560   74.7891    3.2560 N   0  0  0  0  0  0  0  0  0  0  0  0
   21.7816   74.5663    2.5253 C   0  0  0  0  0  0  0  0  0  0  0  0
   23.2566   73.7602    0.7699 C   0  0  0  0  0  0  0  0  0  0  0  0
   24.3665   73.9778    1.4781 C   0  0  0  0  0  0  0  0  0  0  0  0
   24.2537   74.5379    2.8408 C   0  0  0  0  0  0  0  0  0  0  0  0
   22.8479   75.1643    4.1598 H   0  0  0  0  0  0  0  0  0  0  0  0
   19.6844   73.2025   -5.2000 O   0  0  0  0  0  0  0  0  0  0  0  0
   19.0809   71.7195   -4.9762 P   0  0  2  0  0  0  0  0  0  0  0  0
   17.6502   72.0043   -4.2746 O   0  0  0  0  0  0  0  0  0  0  0  0
   19.9785   70.8001   -4.1996 O   0  0  0  0  0  0  0  0  0  0  0  0
   18.7114   71.2001   -6.4582 O   0  0  0  0  0  0  0  0  0  0  0  0
   16.9501   69.6604   -6.0885 O   0  0  0  0  0  0  0  0  0  0  0  0
   17.0572   69.8406  -10.2146 O   0  0  0  0  0  0  0  0  0  0  0  0
   19.5359   69.7323   -8.6722 O   0  0  0  0  0  0  0  0  0  0  0  0
   14.9548   71.2119   -8.7482 O   0  0  0  0  0  0  0  0  0  0  0  0
   17.1966   70.3396   -8.8843 C   0  0  2  0  0  0  0  0  0  0  0  0
   18.2380   69.5099   -8.1330 C   0  0  2  0  0  0  0  0  0  0  0  0
   15.8344   70.2349   -8.1948 C   0  0  1  0  0  0  0  0  0  0  0  0
   18.2495   69.8635   -6.6452 C   0  0  1  0  0  0  0  0  0  0  0  0
   15.9502   70.4777   -6.6928 C   0  0  1  0  0  0  0  0  0  0  0  0
   17.9107   69.8971  -10.6724 H   0  0  0  0  0  0  0  0  0  0  0  0
   19.5358   69.5102   -9.6162 H   0  0  0  0  0  0  0  0  0  0  0  0
   14.8726   71.0686   -9.7040 H   0  0  0  0  0  0  0  0  0  0  0  0
   13.8769   69.3903   -6.8358 O   0  0  0  0  0  0  0  0  0  0  0  0
   14.4511   70.2729   -4.8133 O   0  0  0  0  0  0  0  0  0  0  0  0
   14.7015   70.0554   -5.9893 C   0  0  0  0  0  0  0  0  0  0  0  0
  1  4  1  0
  1 24  1  0
  1  2  1  6
  1  3  2  0
 25 28  1  0
 25 24  1  0
 25 26  1  1
 25 27  2  0
  6 11  1  0
  6 12  1  0
 29 36  1  0
 29 37  1  0
  9  7  1  1
  7 13  1  0
 10  8  1  1
  8 14  1  0
  4  5  1  0
 36 28  1  6
 33 30  1  6
 30 38  1  0
 34 31  1  6
 31 39  1  0
 35 32  1  6
 32 40  1  0
 41 43  1  0
 15 19  2  0
 42 43  2  0
 16 22  2  0
 12 17  1  6
 17 19  1  0
 17 20  1  0
 18 19  1  0
 18 22  1  0
 18 23  1  0
  9 10  1  0
  9 11  1  0
 10 12  1  0
 11  5  1  6
 33 34  1  0
 33 35  1  0
 34 36  1  0
 35 37  1  0
 37 43  1  1
 20 21  2  0
 21 22  1  0
M  CHG  3   2  -1  26  -1  41  -1
M  END
>  <COMPND>  (11) 
    udp_gluA.pdb 

>  <AUTHOR>  (11) 
    GENERATED BY OPEN BABEL 3.1.1

>  <MASTER>  (11) 
        0    0    0    0    0    0    0    0   56    0   56    0

>  <minimizedAffinity>  (11) 
-7.16247

>  <CNNscore>  (11) 
0.3998831511

>  <CNNaffinity>  (11) 
3.8663628101

>  <CNN_VS>  (11) 
1.5460933447

>  <CNNaffinity_variance>  (11) 
0.1311542541

$$$$
12
     RDKit          3D

 43 45  0  0  0  0  0  0  0  0999 V2000
   20.8590   70.9049   -2.7931 P   0  0  2  0  0  0  0  0  0  0  0  0
   21.0471   71.3646   -1.2529 O   0  0  0  0  0  0  0  0  0  0  0  0
   21.1470   69.4570   -3.0619 O   0  0  0  0  0  0  0  0  0  0  0  0
   21.7522   71.9655   -3.6270 O   0  0  0  0  0  0  0  0  0  0  0  0
   22.5944   72.8503   -2.9113 C   0  0  0  0  0  0  0  0  0  0  0  0
   21.4797   74.6028   -1.7013 O   0  0  0  0  0  0  0  0  0  0  0  0
   22.4019   76.4416   -3.8830 O   0  0  0  0  0  0  0  0  0  0  0  0
   24.1895   76.9430   -1.8857 O   0  0  0  0  0  0  0  0  0  0  0  0
   23.0684   75.3186   -3.3057 C   0  0  1  0  0  0  0  0  0  0  0  0
   23.5842   75.6676   -1.9257 C   0  0  2  0  0  0  0  0  0  0  0  0
   22.0202   74.2587   -2.9954 C   0  0  1  0  0  0  0  0  0  0  0  0
   22.3188   75.5943   -1.0883 C   0  0  2  0  0  0  0  0  0  0  0  0
   23.0515   77.1322   -4.0899 H   0  0  0  0  0  0  0  0  0  0  0  0
   24.9905   76.9381   -2.4338 H   0  0  0  0  0  0  0  0  0  0  0  0
   20.7111   76.3230    1.1165 O   0  0  0  0  0  0  0  0  0  0  0  0
   23.4236   74.0585    4.0759 O   0  0  0  0  0  0  0  0  0  0  0  0
   22.5818   75.2088    0.2693 N   0  0  0  0  0  0  0  0  0  0  0  0
   22.0642   75.1953    2.5884 N   0  0  0  0  0  0  0  0  0  0  0  0
   21.7117   75.6281    1.3033 C   0  0  0  0  0  0  0  0  0  0  0  0
   23.6893   74.4234    0.5652 C   0  0  0  0  0  0  0  0  0  0  0  0
   24.0123   74.0186    1.7951 C   0  0  0  0  0  0  0  0  0  0  0  0
   23.1555   74.4140    2.9322 C   0  0  0  0  0  0  0  0  0  0  0  0
   21.4745   75.4764    3.3250 H   0  0  0  0  0  0  0  0  0  0  0  0
   19.3452   71.3635   -3.1263 O   0  0  0  0  0  0  0  0  0  0  0  0
   17.9685   70.5179   -3.1845 P   0  0  2  0  0  0  0  0  0  0  0  0
   16.8955   71.5098   -2.4879 O   0  0  0  0  0  0  0  0  0  0  0  0
   18.0539   69.1581   -2.5539 O   0  0  0  0  0  0  0  0  0  0  0  0
   17.5601   70.5077   -4.7451 O   0  0  0  0  0  0  0  0  0  0  0  0
   18.6950   70.7961   -6.8038 O   0  0  0  0  0  0  0  0  0  0  0  0
   15.2336   72.9593   -7.4419 O   0  0  0  0  0  0  0  0  0  0  0  0
   16.6341   73.1268   -4.8836 O   0  0  0  0  0  0  0  0  0  0  0  0
   15.5643   70.3417   -8.6625 O   0  0  0  0  0  0  0  0  0  0  0  0
   16.0326   71.9104   -6.8947 C   0  0  2  0  0  0  0  0  0  0  0  0
   17.1594   72.5109   -6.0538 C   0  0  2  0  0  0  0  0  0  0  0  0
   16.6100   71.1000   -8.0574 C   0  0  1  0  0  0  0  0  0  0  0  0
   18.1668   71.4365   -5.6418 C   0  0  1  0  0  0  0  0  0  0  0  0
   17.6965   70.1399   -7.5819 C   0  0  1  0  0  0  0  0  0  0  0  0
   14.8561   73.4880   -6.7213 H   0  0  0  0  0  0  0  0  0  0  0  0
   15.9939   73.8094   -5.1376 H   0  0  0  0  0  0  0  0  0  0  0  0
   14.8662   70.9411   -8.9694 H   0  0  0  0  0  0  0  0  0  0  0  0
   18.2227   70.3236   -9.8602 O   0  0  0  0  0  0  0  0  0  0  0  0
   19.2326   68.6463   -8.6914 O   0  0  0  0  0  0  0  0  0  0  0  0
   18.4730   69.6021   -8.7396 C   0  0  0  0  0  0  0  0  0  0  0  0
  1  4  1  0
  1 24  1  0
  1  2  1  1
  1  3  2  0
 25 28  1  0
 25 24  1  0
 25 26  1  1
 25 27  2  0
  6 11  1  0
  6 12  1  0
 29 36  1  0
 29 37  1  0
  9  7  1  1
  7 13  1  0
 10  8  1  6
  8 14  1  0
  4  5  1  0
 36 28  1  1
 33 30  1  6
 30 38  1  0
 34 31  1  1
 31 39  1  0
 35 32  1  1
 32 40  1  0
 41 43  1  0
 15 19  2  0
 42 43  2  0
 16 22  2  0
 12 17  1  1
 17 19  1  0
 17 20  1  0
 18 19  1  0
 18 22  1  0
 18 23  1  0
  9 10  1  0
  9 11  1  0
 10 12  1  0
 11  5  1  1
 33 34  1  0
 33 35  1  0
 34 36  1  0
 35 37  1  0
 37 43  1  6
 20 21  2  0
 21 22  1  0
M  CHG  3   2  -1  26  -1  41  -1
M  END
>  <COMPND>  (12) 
    udp_gluA.pdb 

>  <AUTHOR>  (12) 
    GENERATED BY OPEN BABEL 3.1.1

>  <MASTER>  (12) 
        0    0    0    0    0    0    0    0   56    0   56    0

>  <minimizedAffinity>  (12) 
-6.69394

>  <CNNscore>  (12) 
0.3766134679

>  <CNNaffinity>  (12) 
4.1641626358

>  <CNN_VS>  (12) 
1.5682797432

>  <CNNaffinity_variance>  (12) 
0.0724175572

$$$$
13
     RDKit          3D

 43 45  0  0  0  0  0  0  0  0999 V2000
   19.0806   73.5979   -5.0689 P   0  0  2  0  0  0  0  0  0  0  0  0
   19.9339   72.3496   -4.4922 O   0  0  0  0  0  0  0  0  0  0  0  0
   17.9701   74.0717   -4.1778 O   0  0  0  0  0  0  0  0  0  0  0  0
   18.6370   73.1150   -6.5481 O   0  0  0  0  0  0  0  0  0  0  0  0
   19.6010   72.4836   -7.3706 C   0  0  0  0  0  0  0  0  0  0  0  0
   17.8808   70.8363   -7.0467 O   0  0  0  0  0  0  0  0  0  0  0  0
   19.3920   69.1433   -9.0066 O   0  0  0  0  0  0  0  0  0  0  0  0
   17.3730   70.1611  -10.5310 O   0  0  0  0  0  0  0  0  0  0  0  0
   19.2095   70.5592   -8.9879 C   0  0  1  0  0  0  0  0  0  0  0  0
   17.7999   70.9116   -9.4134 C   0  0  2  0  0  0  0  0  0  0  0  0
   19.2276   71.0161   -7.5356 C   0  0  1  0  0  0  0  0  0  0  0  0
   17.0036   70.5964   -8.1586 C   0  0  2  0  0  0  0  0  0  0  0  0
   19.3840   68.8279   -9.9243 H   0  0  0  0  0  0  0  0  0  0  0  0
   17.9102   70.3980  -11.3038 H   0  0  0  0  0  0  0  0  0  0  0  0
   14.7351   69.9281   -6.6146 O   0  0  0  0  0  0  0  0  0  0  0  0
   12.6009   73.8624   -7.7149 O   0  0  0  0  0  0  0  0  0  0  0  0
   15.8410   71.4278   -8.0240 N   0  0  0  0  0  0  0  0  0  0  0  0
   13.6739   71.8878   -7.1649 N   0  0  0  0  0  0  0  0  0  0  0  0
   14.7553   70.9990   -7.2244 C   0  0  0  0  0  0  0  0  0  0  0  0
   15.7848   72.6526   -8.6779 C   0  0  0  0  0  0  0  0  0  0  0  0
   14.7472   73.4891   -8.6116 C   0  0  0  0  0  0  0  0  0  0  0  0
   13.5716   73.1160   -7.7978 C   0  0  0  0  0  0  0  0  0  0  0  0
   12.9053   71.6101   -6.6159 H   0  0  0  0  0  0  0  0  0  0  0  0
   20.2181   74.7050   -5.3740 O   0  0  0  0  0  0  0  0  0  0  0  0
   21.7993   74.7227   -5.0379 P   0  0  2  0  0  0  0  0  0  0  0  0
   22.1948   76.2839   -5.2010 O   0  0  0  0  0  0  0  0  0  0  0  0
   22.6180   73.7863   -5.8787 O   0  0  0  0  0  0  0  0  0  0  0  0
   21.8836   74.4449   -3.4510 O   0  0  0  0  0  0  0  0  0  0  0  0
   23.4751   74.6922   -1.7146 O   0  0  0  0  0  0  0  0  0  0  0  0
   22.0093   70.9007   -0.9777 O   0  0  0  0  0  0  0  0  0  0  0  0
   22.5765   71.7638   -3.7104 O   0  0  0  0  0  0  0  0  0  0  0  0
   21.1833   73.1340    0.6899 O   0  0  0  0  0  0  0  0  0  0  0  0
   21.9516   72.2572   -1.4186 C   0  0  2  0  0  0  0  0  0  0  0  0
   22.9669   72.4741   -2.5409 C   0  0  2  0  0  0  0  0  0  0  0  0
   22.2778   73.1569   -0.2245 C   0  0  1  0  0  0  0  0  0  0  0  0
   23.0977   73.9594   -2.8808 C   0  0  1  0  0  0  0  0  0  0  0  0
   22.5173   74.5989   -0.6625 C   0  0  1  0  0  0  0  0  0  0  0  0
   21.8054   70.3102   -1.7200 H   0  0  0  0  0  0  0  0  0  0  0  0
   22.4914   70.8205   -3.5019 H   0  0  0  0  0  0  0  0  0  0  0  0
   21.0203   72.2217    0.9763 H   0  0  0  0  0  0  0  0  0  0  0  0
   24.4728   75.5633    0.2021 O   0  0  0  0  0  0  0  0  0  0  0  0
   22.5599   75.8249    1.4151 O   0  0  0  0  0  0  0  0  0  0  0  0
   23.1486   75.3894    0.4370 C   0  0  0  0  0  0  0  0  0  0  0  0
  1  4  1  0
  1 24  1  0
  1  2  1  1
  1  3  2  0
 25 28  1  0
 25 24  1  0
 25 26  1  1
 25 27  2  0
  6 11  1  0
  6 12  1  0
 29 36  1  0
 29 37  1  0
  9  7  1  1
  7 13  1  0
 10  8  1  6
  8 14  1  0
  4  5  1  0
 36 28  1  1
 33 30  1  1
 30 38  1  0
 34 31  1  6
 31 39  1  0
 35 32  1  1
 32 40  1  0
 41 43  1  0
 15 19  2  0
 42 43  2  0
 16 22  2  0
 12 17  1  1
 17 19  1  0
 17 20  1  0
 18 19  1  0
 18 22  1  0
 18 23  1  0
  9 10  1  0
  9 11  1  0
 10 12  1  0
 11  5  1  6
 33 34  1  0
 33 35  1  0
 34 36  1  0
 35 37  1  0
 37 43  1  1
 20 21  2  0
 21 22  1  0
M  CHG  3   2  -1  26  -1  41  -1
M  END
>  <COMPND>  (13) 
    udp_gluA.pdb 

>  <AUTHOR>  (13) 
    GENERATED BY OPEN BABEL 3.1.1

>  <MASTER>  (13) 
        0    0    0    0    0    0    0    0   56    0   56    0

>  <minimizedAffinity>  (13) 
-7.05203

>  <CNNscore>  (13) 
0.3692755401

>  <CNNaffinity>  (13) 
4.0260124207

>  <CNN_VS>  (13) 
1.4867079258

>  <CNNaffinity_variance>  (13) 
0.2788309157

$$$$
14
     RDKit          3D

 43 45  0  0  0  0  0  0  0  0999 V2000
   21.6192   73.7758   -7.7825 P   0  0  2  0  0  0  0  0  0  0  0  0
   20.4204   74.8440   -7.5813 O   0  0  0  0  0  0  0  0  0  0  0  0
   22.7367   74.2374   -8.6713 O   0  0  0  0  0  0  0  0  0  0  0  0
   20.8615   72.4249   -8.2506 O   0  0  0  0  0  0  0  0  0  0  0  0
   19.4783   72.2962   -7.9772 C   0  0  0  0  0  0  0  0  0  0  0  0
   18.6626   70.0885   -7.4893 O   0  0  0  0  0  0  0  0  0  0  0  0
   17.6010   70.0627  -10.2935 O   0  0  0  0  0  0  0  0  0  0  0  0
   15.3759   70.6207   -8.8191 O   0  0  0  0  0  0  0  0  0  0  0  0
   17.6851   71.1475   -9.3690 C   0  0  1  0  0  0  0  0  0  0  0  0
   16.6298   71.0023   -8.2931 C   0  0  2  0  0  0  0  0  0  0  0  0
   18.9742   70.9888   -8.5745 C   0  0  1  0  0  0  0  0  0  0  0  0
   17.2373   69.9361   -7.3975 C   0  0  2  0  0  0  0  0  0  0  0  0
   16.7852   70.1425  -10.8128 H   0  0  0  0  0  0  0  0  0  0  0  0
   15.0312   71.3324   -9.3818 H   0  0  0  0  0  0  0  0  0  0  0  0
   16.3709   67.8081   -5.7550 O   0  0  0  0  0  0  0  0  0  0  0  0
   15.7355   70.6084   -2.1496 O   0  0  0  0  0  0  0  0  0  0  0  0
   16.8395   70.0809   -6.0258 N   0  0  0  0  0  0  0  0  0  0  0  0
   16.0543   69.2050   -3.9612 N   0  0  0  0  0  0  0  0  0  0  0  0
   16.4204   68.9480   -5.2890 C   0  0  0  0  0  0  0  0  0  0  0  0
   16.8684   71.3330   -5.4238 C   0  0  0  0  0  0  0  0  0  0  0  0
   16.5165   71.5623   -4.1571 C   0  0  0  0  0  0  0  0  0  0  0  0
   16.0657   70.4324   -3.3185 C   0  0  0  0  0  0  0  0  0  0  0  0
   15.7570   68.4320   -3.4288 H   0  0  0  0  0  0  0  0  0  0  0  0
   22.0618   73.4370   -6.2652 O   0  0  0  0  0  0  0  0  0  0  0  0
   22.5116   74.4035   -5.0498 P   0  0  2  0  0  0  0  0  0  0  0  0
   22.8259   75.8079   -5.7910 O   0  0  0  0  0  0  0  0  0  0  0  0
   23.6488   73.8702   -4.2274 O   0  0  0  0  0  0  0  0  0  0  0  0
   21.1553   74.6758   -4.2199 O   0  0  0  0  0  0  0  0  0  0  0  0
   20.9145   72.6669   -2.9888 O   0  0  0  0  0  0  0  0  0  0  0  0
   17.9869   75.0433   -1.3008 O   0  0  0  0  0  0  0  0  0  0  0  0
   18.3965   75.0280   -4.1933 O   0  0  0  0  0  0  0  0  0  0  0  0
   20.4732   74.5570    0.1248 O   0  0  0  0  0  0  0  0  0  0  0  0
   19.2368   74.7663   -1.9324 C   0  0  2  0  0  0  0  0  0  0  0  0
   18.9895   74.1041   -3.2881 C   0  0  2  0  0  0  0  0  0  0  0  0
   20.0307   73.8294   -1.0193 C   0  0  1  0  0  0  0  0  0  0  0  0
   20.2962   73.5858   -3.8903 C   0  0  1  0  0  0  0  0  0  0  0  0
   21.2506   73.2561   -1.7346 C   0  0  1  0  0  0  0  0  0  0  0  0
   17.4649   75.6372   -1.8630 H   0  0  0  0  0  0  0  0  0  0  0  0
   17.5669   75.3612   -3.8174 H   0  0  0  0  0  0  0  0  0  0  0  0
   19.7063   74.9273    0.5891 H   0  0  0  0  0  0  0  0  0  0  0  0
   22.6307   72.5542    0.0273 O   0  0  0  0  0  0  0  0  0  0  0  0
   21.6016   70.9300   -1.1983 O   0  0  0  0  0  0  0  0  0  0  0  0
   21.8246   72.1091   -0.9682 C   0  0  0  0  0  0  0  0  0  0  0  0
  1  4  1  0
  1 24  1  0
  1  2  1  1
  1  3  2  0
 25 28  1  0
 25 24  1  0
 25 26  1  6
 25 27  2  0
  6 11  1  0
  6 12  1  0
 29 36  1  0
 29 37  1  0
  9  7  1  6
  7 13  1  0
 10  8  1  6
  8 14  1  0
  4  5  1  0
 36 28  1  1
 33 30  1  1
 30 38  1  0
 34 31  1  6
 31 39  1  0
 35 32  1  1
 32 40  1  0
 41 43  1  0
 15 19  2  0
 42 43  2  0
 16 22  2  0
 12 17  1  1
 17 19  1  0
 17 20  1  0
 18 19  1  0
 18 22  1  0
 18 23  1  0
  9 10  1  0
  9 11  1  0
 10 12  1  0
 11  5  1  1
 33 34  1  0
 33 35  1  0
 34 36  1  0
 35 37  1  0
 37 43  1  1
 20 21  2  0
 21 22  1  0
M  CHG  3   2  -1  26  -1  41  -1
M  END
>  <COMPND>  (14) 
    udp_gluA.pdb 

>  <AUTHOR>  (14) 
    GENERATED BY OPEN BABEL 3.1.1

>  <MASTER>  (14) 
        0    0    0    0    0    0    0    0   56    0   56    0

>  <minimizedAffinity>  (14) 
-7.34471

>  <CNNscore>  (14) 
0.3674664795

>  <CNNaffinity>  (14) 
4.0325298309

>  <CNN_VS>  (14) 
1.4818195105

>  <CNNaffinity_variance>  (14) 
0.6187340617

$$$$
15
     RDKit          3D

 43 45  0  0  0  0  0  0  0  0999 V2000
   20.6854   73.4677   -6.6716 P   0  0  2  0  0  0  0  0  0  0  0  0
   22.2987   73.5725   -6.7423 O   0  0  0  0  0  0  0  0  0  0  0  0
   20.0279   72.9622   -7.9222 O   0  0  0  0  0  0  0  0  0  0  0  0
   20.2218   74.9375   -6.1790 O   0  0  0  0  0  0  0  0  0  0  0  0
   21.2082   75.9415   -6.0257 C   0  0  0  0  0  0  0  0  0  0  0  0
   20.3022   75.9488   -3.7993 O   0  0  0  0  0  0  0  0  0  0  0  0
   21.5997   78.6332   -3.4802 O   0  0  0  0  0  0  0  0  0  0  0  0
   23.3339   76.9753   -2.1840 O   0  0  0  0  0  0  0  0  0  0  0  0
   22.0617   77.4852   -4.1924 C   0  0  1  0  0  0  0  0  0  0  0  0
   22.5498   76.4289   -3.2238 C   0  0  2  0  0  0  0  0  0  0  0  0
   20.8536   76.8058   -4.8225 C   0  0  1  0  0  0  0  0  0  0  0  0
   21.2451   75.8343   -2.7217 C   0  0  2  0  0  0  0  0  0  0  0  0
   22.3541   79.0841   -3.0687 H   0  0  0  0  0  0  0  0  0  0  0  0
   24.1531   77.3406   -2.5546 H   0  0  0  0  0  0  0  0  0  0  0  0
   19.4893   74.4659   -0.9837 O   0  0  0  0  0  0  0  0  0  0  0  0
   21.8452   70.5272   -1.4091 O   0  0  0  0  0  0  0  0  0  0  0  0
   21.3763   74.4509   -2.3611 N   0  0  0  0  0  0  0  0  0  0  0  0
   20.6649   72.5058   -1.1964 N   0  0  0  0  0  0  0  0  0  0  0  0
   20.4404   73.8594   -1.4800 C   0  0  0  0  0  0  0  0  0  0  0  0
   22.4209   73.6951   -2.8793 C   0  0  0  0  0  0  0  0  0  0  0  0
   22.6218   72.4058   -2.5998 C   0  0  0  0  0  0  0  0  0  0  0  0
   21.6896   71.7126   -1.6867 C   0  0  0  0  0  0  0  0  0  0  0  0
   20.0275   72.0726   -0.5837 H   0  0  0  0  0  0  0  0  0  0  0  0
   20.4382   72.5512   -5.3633 O   0  0  0  0  0  0  0  0  0  0  0  0
   19.1494   71.6947   -4.8953 P   0  0  2  0  0  0  0  0  0  0  0  0
   18.1856   72.8112   -4.2284 O   0  0  0  0  0  0  0  0  0  0  0  0
   19.4726   70.5386   -3.9937 O   0  0  0  0  0  0  0  0  0  0  0  0
   18.4090   71.2858   -6.2690 O   0  0  0  0  0  0  0  0  0  0  0  0
   16.8178   69.5591   -5.9597 O   0  0  0  0  0  0  0  0  0  0  0  0
   16.8478   69.9478  -10.0726 O   0  0  0  0  0  0  0  0  0  0  0  0
   19.3462   70.0179   -8.5603 O   0  0  0  0  0  0  0  0  0  0  0  0
   14.6385   71.0261   -8.5211 O   0  0  0  0  0  0  0  0  0  0  0  0
   16.9548   70.3937   -8.7207 C   0  0  2  0  0  0  0  0  0  0  0  0
   18.0853   69.6389   -8.0209 C   0  0  2  0  0  0  0  0  0  0  0  0
   15.6200   70.1180   -8.0247 C   0  0  1  0  0  0  0  0  0  0  0  0
   18.0820   69.9198   -6.5175 C   0  0  1  0  0  0  0  0  0  0  0  0
   15.7319   70.2987   -6.5137 C   0  0  1  0  0  0  0  0  0  0  0  0
   17.6846   70.1128  -10.5349 H   0  0  0  0  0  0  0  0  0  0  0  0
   19.3553   69.8427   -9.5140 H   0  0  0  0  0  0  0  0  0  0  0  0
   14.5576   70.9214   -9.4820 H   0  0  0  0  0  0  0  0  0  0  0  0
   13.6866   69.1688   -6.7175 O   0  0  0  0  0  0  0  0  0  0  0  0
   14.3594   69.7303   -4.6125 O   0  0  0  0  0  0  0  0  0  0  0  0
   14.5424   69.7182   -5.8205 C   0  0  0  0  0  0  0  0  0  0  0  0
  1  4  1  0
  1 24  1  0
  1  2  1  6
  1  3  2  0
 25 28  1  0
 25 24  1  0
 25 26  1  1
 25 27  2  0
  6 11  1  0
  6 12  1  0
 29 36  1  0
 29 37  1  0
  9  7  1  1
  7 13  1  0
 10  8  1  1
  8 14  1  0
  4  5  1  0
 36 28  1  6
 33 30  1  6
 30 38  1  0
 34 31  1  6
 31 39  1  0
 35 32  1  6
 32 40  1  0
 41 43  1  0
 15 19  2  0
 42 43  2  0
 16 22  2  0
 12 17  1  6
 17 19  1  0
 17 20  1  0
 18 19  1  0
 18 22  1  0
 18 23  1  0
  9 10  1  0
  9 11  1  0
 10 12  1  0
 11  5  1  6
 33 34  1  0
 33 35  1  0
 34 36  1  0
 35 37  1  0
 37 43  1  1
 20 21  2  0
 21 22  1  0
M  CHG  3   2  -1  26  -1  41  -1
M  END
>  <COMPND>  (15) 
    udp_gluA.pdb 

>  <AUTHOR>  (15) 
    GENERATED BY OPEN BABEL 3.1.1

>  <MASTER>  (15) 
        0    0    0    0    0    0    0    0   56    0   56    0

>  <minimizedAffinity>  (15) 
-6.89030

>  <CNNscore>  (15) 
0.3564500213

>  <CNNaffinity>  (15) 
4.0665407181

>  <CNN_VS>  (15) 
1.4495185614

>  <CNNaffinity_variance>  (15) 
0.2393817008

$$$$
16
     RDKit          3D

 43 45  0  0  0  0  0  0  0  0999 V2000
   20.8069   73.6419   -5.4870 P   0  0  2  0  0  0  0  0  0  0  0  0
   20.1246   75.0908   -5.7198 O   0  0  0  0  0  0  0  0  0  0  0  0
   21.8799   73.2812   -6.4720 O   0  0  0  0  0  0  0  0  0  0  0  0
   19.5487   72.6271   -5.4155 O   0  0  0  0  0  0  0  0  0  0  0  0
   19.4500   71.7495   -4.3089 C   0  0  0  0  0  0  0  0  0  0  0  0
   17.2063   71.7085   -5.1702 O   0  0  0  0  0  0  0  0  0  0  0  0
   16.4696   70.2365   -2.6638 O   0  0  0  0  0  0  0  0  0  0  0  0
   16.6326   68.2324   -4.5058 O   0  0  0  0  0  0  0  0  0  0  0  0
   17.6657   70.1580   -3.4395 C   0  0  1  0  0  0  0  0  0  0  0  0
   17.4106   69.3914   -4.7199 C   0  0  2  0  0  0  0  0  0  0  0  0
   17.9800   71.5536   -3.9608 C   0  0  1  0  0  0  0  0  0  0  0  0
   16.6951   70.4271   -5.5703 C   0  0  2  0  0  0  0  0  0  0  0  0
   16.2484   69.3565   -2.3199 H   0  0  0  0  0  0  0  0  0  0  0  0
   17.1319   67.6042   -3.9598 H   0  0  0  0  0  0  0  0  0  0  0  0
   14.7342   70.7358   -7.5793 O   0  0  0  0  0  0  0  0  0  0  0  0
   17.7351   69.7053  -10.9224 O   0  0  0  0  0  0  0  0  0  0  0  0
   16.9368   70.2455   -6.9737 N   0  0  0  0  0  0  0  0  0  0  0  0
   16.2305   70.2213   -9.2424 N   0  0  0  0  0  0  0  0  0  0  0  0
   15.8826   70.4246   -7.9005 C   0  0  0  0  0  0  0  0  0  0  0  0
   18.2057   69.8960   -7.4195 C   0  0  0  0  0  0  0  0  0  0  0  0
   18.5220   69.7057   -8.7019 C   0  0  0  0  0  0  0  0  0  0  0  0
   17.4779   69.8722   -9.7341 C   0  0  0  0  0  0  0  0  0  0  0  0
   15.5126   70.3382   -9.9060 H   0  0  0  0  0  0  0  0  0  0  0  0
   21.3013   73.7165   -3.9498 O   0  0  0  0  0  0  0  0  0  0  0  0
   22.6919   73.2660   -3.2591 P   0  0  2  0  0  0  0  0  0  0  0  0
   23.7971   74.1557   -4.0385 O   0  0  0  0  0  0  0  0  0  0  0  0
   22.9485   71.7873   -3.2987 O   0  0  0  0  0  0  0  0  0  0  0  0
   22.6348   73.8962   -1.7752 O   0  0  0  0  0  0  0  0  0  0  0  0
   23.0191   73.1348    0.4343 O   0  0  0  0  0  0  0  0  0  0  0  0
   19.5555   75.3390    0.8953 O   0  0  0  0  0  0  0  0  0  0  0  0
   19.8953   73.5801   -1.4124 O   0  0  0  0  0  0  0  0  0  0  0  0
   22.1020   76.4186    1.7898 O   0  0  0  0  0  0  0  0  0  0  0  0
   20.8191   75.0018    0.3230 C   0  0  2  0  0  0  0  0  0  0  0  0
   20.7512   73.5967   -0.2757 C   0  0  2  0  0  0  0  0  0  0  0  0
   21.8709   75.0571    1.4332 C   0  0  1  0  0  0  0  0  0  0  0  0
   22.1406   73.1113   -0.6914 C   0  0  1  0  0  0  0  0  0  0  0  0
   23.1914   74.4405    0.9807 C   0  0  1  0  0  0  0  0  0  0  0  0
   18.8711   75.3104    0.2081 H   0  0  0  0  0  0  0  0  0  0  0  0
   19.0120   73.8872   -1.1559 H   0  0  0  0  0  0  0  0  0  0  0  0
   21.2692   76.8228    2.0796 H   0  0  0  0  0  0  0  0  0  0  0  0
   23.3697   73.8934    3.2546 O   0  0  0  0  0  0  0  0  0  0  0  0
   25.3117   74.2644    2.1186 O   0  0  0  0  0  0  0  0  0  0  0  0
   24.0919   74.1994    2.1483 C   0  0  0  0  0  0  0  0  0  0  0  0
  1  4  1  0
  1 24  1  0
  1  2  1  6
  1  3  2  0
 25 28  1  0
 25 24  1  0
 25 26  1  6
 25 27  2  0
  6 11  1  0
  6 12  1  0
 29 36  1  0
 29 37  1  0
  9  7  1  1
  7 13  1  0
 10  8  1  1
  8 14  1  0
  4  5  1  0
 36 28  1  6
 33 30  1  1
 30 38  1  0
 34 31  1  6
 31 39  1  0
 35 32  1  6
 32 40  1  0
 41 43  1  0
 15 19  2  0
 42 43  2  0
 16 22  2  0
 12 17  1  6
 17 19  1  0
 17 20  1  0
 18 19  1  0
 18 22  1  0
 18 23  1  0
  9 10  1  0
  9 11  1  0
 10 12  1  0
 11  5  1  6
 33 34  1  0
 33 35  1  0
 34 36  1  0
 35 37  1  0
 37 43  1  1
 20 21  2  0
 21 22  1  0
M  CHG  3   2  -1  26  -1  41  -1
M  END
>  <COMPND>  (16) 
    udp_gluA.pdb 

>  <AUTHOR>  (16) 
    GENERATED BY OPEN BABEL 3.1.1

>  <MASTER>  (16) 
        0    0    0    0    0    0    0    0   56    0   56    0

>  <minimizedAffinity>  (16) 
-7.15553

>  <CNNscore>  (16) 
0.3392935097

>  <CNNaffinity>  (16) 
4.0606956482

>  <CNN_VS>  (16) 
1.3777676821

>  <CNNaffinity_variance>  (16) 
0.0419278964

$$$$
17
     RDKit          3D

 43 45  0  0  0  0  0  0  0  0999 V2000
   20.1775   71.8148   -2.4950 P   0  0  2  0  0  0  0  0  0  0  0  0
   20.1972   73.2601   -1.7674 O   0  0  0  0  0  0  0  0  0  0  0  0
   20.9573   70.7416   -1.7936 O   0  0  0  0  0  0  0  0  0  0  0  0
   20.6352   72.1377   -4.0129 O   0  0  0  0  0  0  0  0  0  0  0  0
   20.0455   73.2403   -4.6769 C   0  0  0  0  0  0  0  0  0  0  0  0
   19.4943   74.0330   -6.8781 O   0  0  0  0  0  0  0  0  0  0  0  0
   22.2426   73.1449   -7.6838 O   0  0  0  0  0  0  0  0  0  0  0  0
   22.5509   75.8376   -7.3831 O   0  0  0  0  0  0  0  0  0  0  0  0
   21.8032   73.7192   -6.4527 C   0  0  1  0  0  0  0  0  0  0  0  0
   21.5412   75.1999   -6.6291 C   0  0  2  0  0  0  0  0  0  0  0  0
   20.4099   73.1824   -6.1548 C   0  0  1  0  0  0  0  0  0  0  0  0
   20.1959   75.2002   -7.3349 C   0  0  2  0  0  0  0  0  0  0  0  0
   23.1310   73.4731   -7.8952 H   0  0  0  0  0  0  0  0  0  0  0  0
   23.3871   75.8112   -6.8911 H   0  0  0  0  0  0  0  0  0  0  0  0
   20.3519   77.6437   -8.7427 O   0  0  0  0  0  0  0  0  0  0  0  0
   17.1541   79.6021   -6.0627 O   0  0  0  0  0  0  0  0  0  0  0  0
   19.4154   76.3649   -7.0262 N   0  0  0  0  0  0  0  0  0  0  0  0
   18.7598   78.6170   -7.4059 N   0  0  0  0  0  0  0  0  0  0  0  0
   19.5701   77.5424   -7.7954 C   0  0  0  0  0  0  0  0  0  0  0  0
   18.5085   76.3331   -5.9739 C   0  0  0  0  0  0  0  0  0  0  0  0
   17.7430   77.3654   -5.6146 C   0  0  0  0  0  0  0  0  0  0  0  0
   17.8439   78.6335   -6.3664 C   0  0  0  0  0  0  0  0  0  0  0  0
   18.8512   79.4484   -7.9253 H   0  0  0  0  0  0  0  0  0  0  0  0
   18.5980   71.5077   -2.6493 O   0  0  0  0  0  0  0  0  0  0  0  0
   17.8168   70.1681   -3.1063 P   0  0  2  0  0  0  0  0  0  0  0  0
   16.3529   70.3478   -2.4391 O   0  0  0  0  0  0  0  0  0  0  0  0
   18.5137   68.8915   -2.7339 O   0  0  0  0  0  0  0  0  0  0  0  0
   17.5691   70.3585   -4.6889 O   0  0  0  0  0  0  0  0  0  0  0  0
   16.1405   68.5851   -5.3396 O   0  0  0  0  0  0  0  0  0  0  0  0
   16.5378   70.6851   -8.8752 O   0  0  0  0  0  0  0  0  0  0  0  0
   18.8538   70.2336   -7.1527 O   0  0  0  0  0  0  0  0  0  0  0  0
   14.0869   70.8878   -7.3252 O   0  0  0  0  0  0  0  0  0  0  0  0
   16.4641   70.5193   -7.4592 C   0  0  2  0  0  0  0  0  0  0  0  0
   17.5910   69.5976   -6.9925 C   0  0  2  0  0  0  0  0  0  0  0  0
   15.1023   69.9063   -7.1251 C   0  0  1  0  0  0  0  0  0  0  0  0
   17.4101   69.2127   -5.5235 C   0  0  1  0  0  0  0  0  0  0  0  0
   15.0447   69.4335   -5.6754 C   0  0  1  0  0  0  0  0  0  0  0  0
   17.3951   71.0733   -9.1113 H   0  0  0  0  0  0  0  0  0  0  0  0
   18.9751   70.4808   -8.0825 H   0  0  0  0  0  0  0  0  0  0  0  0
   14.1128   71.1972   -8.2442 H   0  0  0  0  0  0  0  0  0  0  0  0
   13.8000   68.1489   -4.1582 O   0  0  0  0  0  0  0  0  0  0  0  0
   13.0461   68.2392   -6.3082 O   0  0  0  0  0  0  0  0  0  0  0  0
   13.8582   68.5536   -5.4511 C   0  0  0  0  0  0  0  0  0  0  0  0
  1  4  1  0
  1 24  1  0
  1  2  1  1
  1  3  2  0
 25 28  1  0
 25 24  1  0
 25 26  1  1
 25 27  2  0
  6 11  1  0
  6 12  1  0
 29 36  1  0
 29 37  1  0
  9  7  1  6
  7 13  1  0
 10  8  1  6
  8 14  1  0
  4  5  1  0
 36 28  1  1
 33 30  1  6
 30 38  1  0
 34 31  1  1
 31 39  1  0
 35 32  1  1
 32 40  1  0
 41 43  1  0
 15 19  2  0
 42 43  2  0
 16 22  2  0
 12 17  1  1
 17 19  1  0
 17 20  1  0
 18 19  1  0
 18 22  1  0
 18 23  1  0
  9 10  1  0
  9 11  1  0
 10 12  1  0
 11  5  1  1
 33 34  1  0
 33 35  1  0
 34 36  1  0
 35 37  1  0
 37 43  1  6
 20 21  2  0
 21 22  1  0
M  CHG  3   2  -1  26  -1  41  -1
M  END
>  <COMPND>  (17) 
    udp_gluA.pdb 

>  <AUTHOR>  (17) 
    GENERATED BY OPEN BABEL 3.1.1

>  <MASTER>  (17) 
        0    0    0    0    0    0    0    0   56    0   56    0

>  <minimizedAffinity>  (17) 
-6.73483

>  <CNNscore>  (17) 
0.3357893229

>  <CNNaffinity>  (17) 
4.1989774704

>  <CNN_VS>  (17) 
1.4099718332

>  <CNNaffinity_variance>  (17) 
0.0431978926

$$$$
18
     RDKit          3D

 43 45  0  0  0  0  0  0  0  0999 V2000
   15.5210   69.3695   -4.7766 P   0  0  2  0  0  0  0  0  0  0  0  0
   16.1487   67.8793   -4.7130 O   0  0  0  0  0  0  0  0  0  0  0  0
   14.2273   69.5442   -4.0367 O   0  0  0  0  0  0  0  0  0  0  0  0
   15.4764   69.7051   -6.3588 O   0  0  0  0  0  0  0  0  0  0  0  0
   16.6994   69.9176   -7.0397 C   0  0  0  0  0  0  0  0  0  0  0  0
   16.3479   71.5967   -8.7234 O   0  0  0  0  0  0  0  0  0  0  0  0
   16.9292   69.4434  -10.7276 O   0  0  0  0  0  0  0  0  0  0  0  0
   19.2843   70.8142  -10.6258 O   0  0  0  0  0  0  0  0  0  0  0  0
   17.5051   69.6577   -9.4388 C   0  0  1  0  0  0  0  0  0  0  0  0
   18.4592   70.8326   -9.4798 C   0  0  2  0  0  0  0  0  0  0  0  0
   16.4093   70.1693   -8.5138 C   0  0  1  0  0  0  0  0  0  0  0  0
   17.5048   72.0145   -9.4652 C   0  0  2  0  0  0  0  0  0  0  0  0
   17.6105   69.1163  -11.3362 H   0  0  0  0  0  0  0  0  0  0  0  0
   19.8733   70.0437  -10.5878 H   0  0  0  0  0  0  0  0  0  0  0  0
   19.7439   71.9504   -7.7451 O   0  0  0  0  0  0  0  0  0  0  0  0
   19.6006   76.5105   -7.0902 O   0  0  0  0  0  0  0  0  0  0  0  0
   18.0735   73.1703   -8.8316 N   0  0  0  0  0  0  0  0  0  0  0  0
   19.6697   74.2215   -7.4198 N   0  0  0  0  0  0  0  0  0  0  0  0
   19.1987   73.0293   -7.9852 C   0  0  0  0  0  0  0  0  0  0  0  0
   17.5191   74.4253   -9.0518 C   0  0  0  0  0  0  0  0  0  0  0  0
   17.9793   75.5527   -8.5059 C   0  0  0  0  0  0  0  0  0  0  0  0
   19.1516   75.4926   -7.6084 C   0  0  0  0  0  0  0  0  0  0  0  0
   20.4511   74.1484   -6.8252 H   0  0  0  0  0  0  0  0  0  0  0  0
   16.7326   70.2967   -4.2426 O   0  0  0  0  0  0  0  0  0  0  0  0
   16.7318   71.5877   -3.2695 P   0  0  2  0  0  0  0  0  0  0  0  0
   16.4157   70.9536   -1.8140 O   0  0  0  0  0  0  0  0  0  0  0  0
   15.7852   72.6747   -3.6893 O   0  0  0  0  0  0  0  0  0  0  0  0
   18.2781   72.0407   -3.1892 O   0  0  0  0  0  0  0  0  0  0  0  0
   20.1490   72.2971   -4.6185 O   0  0  0  0  0  0  0  0  0  0  0  0
   21.7747   70.1558   -1.4816 O   0  0  0  0  0  0  0  0  0  0  0  0
   19.1313   69.4782   -2.5245 O   0  0  0  0  0  0  0  0  0  0  0  0
   22.3227   72.9983   -1.7470 O   0  0  0  0  0  0  0  0  0  0  0  0
   20.8933   71.0916   -2.1023 C   0  0  2  0  0  0  0  0  0  0  0  0
   20.0416   70.3750   -3.1504 C   0  0  2  0  0  0  0  0  0  0  0  0
   21.7454   72.1785   -2.7614 C   0  0  1  0  0  0  0  0  0  0  0  0
   19.2525   71.3781   -3.9930 C   0  0  1  0  0  0  0  0  0  0  0  0
   20.9081   73.0602   -3.6834 C   0  0  1  0  0  0  0  0  0  0  0  0
   21.2554   69.4554   -1.0560 H   0  0  0  0  0  0  0  0  0  0  0  0
   19.6252   68.8390   -1.9879 H   0  0  0  0  0  0  0  0  0  0  0  0
   22.8581   72.4492   -1.1532 H   0  0  0  0  0  0  0  0  0  0  0  0
   22.9610   73.2603   -4.8003 O   0  0  0  0  0  0  0  0  0  0  0  0
   21.4895   74.9893   -5.0108 O   0  0  0  0  0  0  0  0  0  0  0  0
   21.7848   73.8918   -4.5622 C   0  0  0  0  0  0  0  0  0  0  0  0
  1  4  1  0
  1 24  1  0
  1  2  1  6
  1  3  2  0
 25 28  1  0
 25 24  1  0
 25 26  1  1
 25 27  2  0
  6 11  1  0
  6 12  1  0
 29 36  1  0
 29 37  1  0
  9  7  1  6
  7 13  1  0
 10  8  1  6
  8 14  1  0
  4  5  1  0
 36 28  1  1
 33 30  1  6
 30 38  1  0
 34 31  1  1
 31 39  1  0
 35 32  1  1
 32 40  1  0
 41 43  1  0
 15 19  2  0
 42 43  2  0
 16 22  2  0
 12 17  1  1
 17 19  1  0
 17 20  1  0
 18 19  1  0
 18 22  1  0
 18 23  1  0
  9 10  1  0
  9 11  1  0
 10 12  1  0
 11  5  1  1
 33 34  1  0
 33 35  1  0
 34 36  1  0
 35 37  1  0
 37 43  1  6
 20 21  2  0
 21 22  1  0
M  CHG  3   2  -1  26  -1  41  -1
M  END
>  <COMPND>  (18) 
    udp_gluA.pdb 

>  <AUTHOR>  (18) 
    GENERATED BY OPEN BABEL 3.1.1

>  <MASTER>  (18) 
        0    0    0    0    0    0    0    0   56    0   56    0

>  <minimizedAffinity>  (18) 
-7.53521

>  <CNNscore>  (18) 
0.2982464731

>  <CNNaffinity>  (18) 
4.1277375221

>  <CNN_VS>  (18) 
1.2310831547

>  <CNNaffinity_variance>  (18) 
0.3697521091

$$$$
19
     RDKit          3D

 43 45  0  0  0  0  0  0  0  0999 V2000
   21.0856   74.0140   -6.8339 P   0  0  2  0  0  0  0  0  0  0  0  0
   22.3753   73.5321   -7.6843 O   0  0  0  0  0  0  0  0  0  0  0  0
   21.1212   75.4456   -6.3854 O   0  0  0  0  0  0  0  0  0  0  0  0
   20.9628   72.9116   -5.6560 O   0  0  0  0  0  0  0  0  0  0  0  0
   21.4407   73.2448   -4.3656 C   0  0  0  0  0  0  0  0  0  0  0  0
   20.9186   72.8669   -2.0499 O   0  0  0  0  0  0  0  0  0  0  0  0
   18.1404   73.7743   -2.7206 O   0  0  0  0  0  0  0  0  0  0  0  0
   19.2243   75.9872   -1.5526 O   0  0  0  0  0  0  0  0  0  0  0  0
   19.3904   74.2370   -3.2323 C   0  0  1  0  0  0  0  0  0  0  0  0
   20.0989   75.0850   -2.1973 C   0  0  2  0  0  0  0  0  0  0  0  0
   20.3212   73.0382   -3.3534 C   0  0  1  0  0  0  0  0  0  0  0  0
   20.6532   74.0321   -1.2529 C   0  0  2  0  0  0  0  0  0  0  0  0
   17.5288   74.5228   -2.6344 H   0  0  0  0  0  0  0  0  0  0  0  0
   18.8988   76.6373   -2.1956 H   0  0  0  0  0  0  0  0  0  0  0  0
   21.3682   73.3974    1.4047 O   0  0  0  0  0  0  0  0  0  0  0  0
   25.3505   75.6946    1.0752 O   0  0  0  0  0  0  0  0  0  0  0  0
   21.8711   74.4514   -0.6189 N   0  0  0  0  0  0  0  0  0  0  0  0
   23.3504   74.5430    1.2384 N   0  0  0  0  0  0  0  0  0  0  0  0
   22.1341   74.0787    0.7205 C   0  0  0  0  0  0  0  0  0  0  0  0
   22.7899   75.2209   -1.3222 C   0  0  0  0  0  0  0  0  0  0  0  0
   23.9451   75.6559   -0.8151 C   0  0  0  0  0  0  0  0  0  0  0  0
   24.2958   75.3112    0.5783 C   0  0  0  0  0  0  0  0  0  0  0  0
   23.5547   74.2979    2.1698 H   0  0  0  0  0  0  0  0  0  0  0  0
   19.8497   73.6442   -7.8079 O   0  0  0  0  0  0  0  0  0  0  0  0
   19.2425   72.2145   -8.2561 P   0  0  2  0  0  0  0  0  0  0  0  0
   20.5611   71.2932   -8.4377 O   0  0  0  0  0  0  0  0  0  0  0  0
   18.3578   72.2737   -9.4676 O   0  0  0  0  0  0  0  0  0  0  0  0
   18.5246   71.6409   -6.9302 O   0  0  0  0  0  0  0  0  0  0  0  0
   18.9135   69.7147   -5.6083 O   0  0  0  0  0  0  0  0  0  0  0  0
   14.7957   70.0159   -5.4639 O   0  0  0  0  0  0  0  0  0  0  0  0
   16.2266   70.4688   -7.9702 O   0  0  0  0  0  0  0  0  0  0  0  0
   16.3979   70.8059   -3.1704 O   0  0  0  0  0  0  0  0  0  0  0  0
   16.1358   70.5012   -5.5460 C   0  0  2  0  0  0  0  0  0  0  0  0
   16.8122   69.9279   -6.7915 C   0  0  2  0  0  0  0  0  0  0  0  0
   16.8783   70.0555   -4.2843 C   0  0  1  0  0  0  0  0  0  0  0  0
   18.3098   70.2375   -6.7922 C   0  0  1  0  0  0  0  0  0  0  0  0
   18.3818   70.2824   -4.4133 C   0  0  1  0  0  0  0  0  0  0  0  0
   14.3044   70.2870   -6.2553 H   0  0  0  0  0  0  0  0  0  0  0  0
   15.2762   70.2762   -7.9762 H   0  0  0  0  0  0  0  0  0  0  0  0
   15.4420   70.6703   -3.0774 H   0  0  0  0  0  0  0  0  0  0  0  0
   18.2576   68.9409   -2.4932 O   0  0  0  0  0  0  0  0  0  0  0  0
   20.3383   69.5131   -3.2295 O   0  0  0  0  0  0  0  0  0  0  0  0
   19.1221   69.5554   -3.3382 C   0  0  0  0  0  0  0  0  0  0  0  0
  1  4  1  0
  1 24  1  0
  1  2  1  6
  1  3  2  0
 25 28  1  0
 25 24  1  0
 25 26  1  6
 25 27  2  0
  6 11  1  0
  6 12  1  0
 29 36  1  0
 29 37  1  0
  9  7  1  1
  7 13  1  0
 10  8  1  1
  8 14  1  0
  4  5  1  0
 36 28  1  1
 33 30  1  1
 30 38  1  0
 34 31  1  6
 31 39  1  0
 35 32  1  1
 32 40  1  0
 41 43  1  0
 15 19  2  0
 42 43  2  0
 16 22  2  0
 12 17  1  6
 17 19  1  0
 17 20  1  0
 18 19  1  0
 18 22  1  0
 18 23  1  0
  9 10  1  0
  9 11  1  0
 10 12  1  0
 11  5  1  6
 33 34  1  0
 33 35  1  0
 34 36  1  0
 35 37  1  0
 37 43  1  1
 20 21  2  0
 21 22  1  0
M  CHG  3   2  -1  26  -1  41  -1
M  END
>  <COMPND>  (19) 
    udp_gluA.pdb 

>  <AUTHOR>  (19) 
    GENERATED BY OPEN BABEL 3.1.1

>  <MASTER>  (19) 
        0    0    0    0    0    0    0    0   56    0   56    0

>  <minimizedAffinity>  (19) 
-6.55848

>  <CNNscore>  (19) 
0.2880147994

>  <CNNaffinity>  (19) 
3.9763648510

>  <CNN_VS>  (19) 
1.1452518702

>  <CNNaffinity_variance>  (19) 
0.2348196805

$$$$
20
     RDKit          3D

 43 45  0  0  0  0  0  0  0  0999 V2000
   20.7539   71.5002   -2.8420 P   0  0  2  0  0  0  0  0  0  0  0  0
   20.0422   72.8693   -2.3543 O   0  0  0  0  0  0  0  0  0  0  0  0
   20.6718   70.3616   -1.8680 O   0  0  0  0  0  0  0  0  0  0  0  0
   22.2476   71.9648   -3.2555 O   0  0  0  0  0  0  0  0  0  0  0  0
   22.6553   73.2847   -2.9455 C   0  0  0  0  0  0  0  0  0  0  0  0
   22.6296   73.5452   -5.3348 O   0  0  0  0  0  0  0  0  0  0  0  0
   24.5715   75.7929   -4.9242 O   0  0  0  0  0  0  0  0  0  0  0  0
   22.2114   77.1058   -5.3009 O   0  0  0  0  0  0  0  0  0  0  0  0
   23.4658   75.3945   -4.1135 C   0  0  1  0  0  0  0  0  0  0  0  0
   22.1624   75.7982   -4.7697 C   0  0  2  0  0  0  0  0  0  0  0  0
   23.3821   73.8746   -4.1472 C   0  0  1  0  0  0  0  0  0  0  0  0
   22.0082   74.7357   -5.8445 C   0  0  2  0  0  0  0  0  0  0  0  0
   24.6452   76.7604   -4.9182 H   0  0  0  0  0  0  0  0  0  0  0  0
   22.3098   77.7452   -4.5774 H   0  0  0  0  0  0  0  0  0  0  0  0
   21.1411   73.1161   -7.9896 O   0  0  0  0  0  0  0  0  0  0  0  0
   16.7054   73.7216   -6.8931 O   0  0  0  0  0  0  0  0  0  0  0  0
   20.6326   74.4534   -6.1426 N   0  0  0  0  0  0  0  0  0  0  0  0
   18.9326   73.4200   -7.4421 N   0  0  0  0  0  0  0  0  0  0  0  0
   20.3040   73.6277   -7.2436 C   0  0  0  0  0  0  0  0  0  0  0  0
   19.6265   74.9902   -5.3484 C   0  0  0  0  0  0  0  0  0  0  0  0
   18.3237   74.7832   -5.5500 C   0  0  0  0  0  0  0  0  0  0  0  0
   17.8954   73.9327   -6.6799 C   0  0  0  0  0  0  0  0  0  0  0  0
   18.6792   72.8501   -8.2038 H   0  0  0  0  0  0  0  0  0  0  0  0
   20.0533   71.2159   -4.2707 O   0  0  0  0  0  0  0  0  0  0  0  0
   18.6590   70.4870   -4.6428 P   0  0  2  0  0  0  0  0  0  0  0  0
   17.5511   71.6235   -4.3245 O   0  0  0  0  0  0  0  0  0  0  0  0
   18.4340   69.1864   -3.9275 O   0  0  0  0  0  0  0  0  0  0  0  0
   18.6739   70.3723   -6.2519 O   0  0  0  0  0  0  0  0  0  0  0  0
   16.5647   69.3726   -6.6530 O   0  0  0  0  0  0  0  0  0  0  0  0
   17.7223   70.4529  -10.4689 O   0  0  0  0  0  0  0  0  0  0  0  0
   19.6483   69.2753   -8.6147 O   0  0  0  0  0  0  0  0  0  0  0  0
   15.7074   72.0050   -9.0609 O   0  0  0  0  0  0  0  0  0  0  0  0
   17.6436   70.5711   -9.0484 C   0  0  2  0  0  0  0  0  0  0  0  0
   18.2430   69.3245   -8.3972 C   0  0  2  0  0  0  0  0  0  0  0  0
   16.1686   70.7141   -8.6667 C   0  0  1  0  0  0  0  0  0  0  0  0
   17.9711   69.3089   -6.8923 C   0  0  1  0  0  0  0  0  0  0  0  0
   15.9652   70.5620   -7.1620 C   0  0  1  0  0  0  0  0  0  0  0  0
   18.6508   70.3609  -10.7349 H   0  0  0  0  0  0  0  0  0  0  0  0
   19.8281   69.2851   -9.5676 H   0  0  0  0  0  0  0  0  0  0  0  0
   15.8314   72.1147  -10.0167 H   0  0  0  0  0  0  0  0  0  0  0  0
   13.8533   71.5525   -6.9168 O   0  0  0  0  0  0  0  0  0  0  0  0
   13.9986   69.3075   -6.5455 O   0  0  0  0  0  0  0  0  0  0  0  0
   14.5188   70.3736   -6.8386 C   0  0  0  0  0  0  0  0  0  0  0  0
  1  4  1  0
  1 24  1  0
  1  2  1  1
  1  3  2  0
 25 28  1  0
 25 24  1  0
 25 26  1  6
 25 27  2  0
  6 11  1  0
  6 12  1  0
 29 36  1  0
 29 37  1  0
  9  7  1  6
  7 13  1  0
 10  8  1  6
  8 14  1  0
  4  5  1  0
 36 28  1  1
 33 30  1  6
 30 38  1  0
 34 31  1  1
 31 39  1  0
 35 32  1  1
 32 40  1  0
 41 43  1  0
 15 19  2  0
 42 43  2  0
 16 22  2  0
 12 17  1  1
 17 19  1  0
 17 20  1  0
 18 19  1  0
 18 22  1  0
 18 23  1  0
  9 10  1  0
  9 11  1  0
 10 12  1  0
 11  5  1  1
 33 34  1  0
 33 35  1  0
 34 36  1  0
 35 37  1  0
 37 43  1  6
 20 21  2  0
 21 22  1  0
M  CHG  3   2  -1  26  -1  41  -1
M  END
>  <COMPND>  (20) 
    udp_gluA.pdb 

>  <AUTHOR>  (20) 
    GENERATED BY OPEN BABEL 3.1.1

>  <MASTER>  (20) 
        0    0    0    0    0    0    0    0   56    0   56    0

>  <minimizedAffinity>  (20) 
-7.30332

>  <CNNscore>  (20) 
0.2842168510

>  <CNNaffinity>  (20) 
3.9197692871

>  <CNN_VS>  (20) 
1.1140644550

>  <CNNaffinity_variance>  (20) 
0.5063132048

$$$$
21
     RDKit          3D

 43 45  0  0  0  0  0  0  0  0999 V2000
   18.7562   73.8265   -7.8921 P   0  0  2  0  0  0  0  0  0  0  0  0
   17.2704   73.5731   -7.3030 O   0  0  0  0  0  0  0  0  0  0  0  0
   19.0291   75.2327   -8.3393 O   0  0  0  0  0  0  0  0  0  0  0  0
   18.9251   72.6837   -9.0250 O   0  0  0  0  0  0  0  0  0  0  0  0
   19.7017   71.5396   -8.7207 C   0  0  0  0  0  0  0  0  0  0  0  0
   18.8438   69.3869   -8.0824 O   0  0  0  0  0  0  0  0  0  0  0  0
   17.1453   69.5394  -10.5488 O   0  0  0  0  0  0  0  0  0  0  0  0
   15.3912   70.2188   -8.5745 O   0  0  0  0  0  0  0  0  0  0  0  0
   17.5382   70.5823   -9.6564 C   0  0  1  0  0  0  0  0  0  0  0  0
   16.7619   70.4833   -8.3603 C   0  0  2  0  0  0  0  0  0  0  0  0
   18.9617   70.2966   -9.1977 C   0  0  1  0  0  0  0  0  0  0  0  0
   17.4739   69.3432   -7.6525 C   0  0  2  0  0  0  0  0  0  0  0  0
   16.2387   69.7002  -10.8553 H   0  0  0  0  0  0  0  0  0  0  0  0
   14.9831   70.9739   -9.0274 H   0  0  0  0  0  0  0  0  0  0  0  0
   15.3366   68.4484   -6.0375 O   0  0  0  0  0  0  0  0  0  0  0  0
   17.4076   69.8897   -2.1803 O   0  0  0  0  0  0  0  0  0  0  0  0
   17.4286   69.4719   -6.2234 N   0  0  0  0  0  0  0  0  0  0  0  0
   16.3697   69.1680   -4.1181 N   0  0  0  0  0  0  0  0  0  0  0  0
   16.3083   68.9894   -5.5064 C   0  0  0  0  0  0  0  0  0  0  0  0
   18.4857   70.0686   -5.5470 C   0  0  0  0  0  0  0  0  0  0  0  0
   18.5299   70.2316   -4.2233 C   0  0  0  0  0  0  0  0  0  0  0  0
   17.3987   69.7559   -3.4003 C   0  0  0  0  0  0  0  0  0  0  0  0
   15.6002   68.8419   -3.5976 H   0  0  0  0  0  0  0  0  0  0  0  0
   19.7135   73.3011   -6.7004 O   0  0  0  0  0  0  0  0  0  0  0  0
   21.1424   73.8408   -6.1706 P   0  0  2  0  0  0  0  0  0  0  0  0
   20.8709   75.4159   -5.9142 O   0  0  0  0  0  0  0  0  0  0  0  0
   22.2902   73.5535   -7.0947 O   0  0  0  0  0  0  0  0  0  0  0  0
   21.2970   73.2087   -4.6945 O   0  0  0  0  0  0  0  0  0  0  0  0
   22.5592   74.7191   -3.3774 O   0  0  0  0  0  0  0  0  0  0  0  0
   21.8452   71.6589   -0.6954 O   0  0  0  0  0  0  0  0  0  0  0  0
   22.5693   71.0641   -3.4624 O   0  0  0  0  0  0  0  0  0  0  0  0
   20.3547   74.1471   -0.5007 O   0  0  0  0  0  0  0  0  0  0  0  0
   21.5599   72.5157   -1.8010 C   0  0  2  0  0  0  0  0  0  0  0  0
   22.6442   72.3541   -2.8667 C   0  0  2  0  0  0  0  0  0  0  0  0
   21.5294   73.9568   -1.2870 C   0  0  1  0  0  0  0  0  0  0  0  0
   22.5010   73.4157   -3.9582 C   0  0  1  0  0  0  0  0  0  0  0  0
   21.5136   74.9586   -2.4379 C   0  0  1  0  0  0  0  0  0  0  0  0
   21.8697   70.7374   -0.9981 H   0  0  0  0  0  0  0  0  0  0  0  0
   22.6591   70.3855   -2.7755 H   0  0  0  0  0  0  0  0  0  0  0  0
   20.3523   73.5154    0.2353 H   0  0  0  0  0  0  0  0  0  0  0  0
   20.6817   76.9517   -1.5231 O   0  0  0  0  0  0  0  0  0  0  0  0
   22.9244   76.8465   -1.9213 O   0  0  0  0  0  0  0  0  0  0  0  0
   21.8141   76.3369   -1.9456 C   0  0  0  0  0  0  0  0  0  0  0  0
  1  4  1  0
  1 24  1  0
  1  2  1  1
  1  3  2  0
 25 28  1  0
 25 24  1  0
 25 26  1  1
 25 27  2  0
  6 11  1  0
  6 12  1  0
 29 36  1  0
 29 37  1  0
  9  7  1  6
  7 13  1  0
 10  8  1  6
  8 14  1  0
  4  5  1  0
 36 28  1  1
 33 30  1  1
 30 38  1  0
 34 31  1  6
 31 39  1  0
 35 32  1  6
 32 40  1  0
 41 43  1  0
 15 19  2  0
 42 43  2  0
 16 22  2  0
 12 17  1  1
 17 19  1  0
 17 20  1  0
 18 19  1  0
 18 22  1  0
 18 23  1  0
  9 10  1  0
  9 11  1  0
 10 12  1  0
 11  5  1  1
 33 34  1  0
 33 35  1  0
 34 36  1  0
 35 37  1  0
 37 43  1  1
 20 21  2  0
 21 22  1  0
M  CHG  3   2  -1  26  -1  41  -1
M  END
>  <COMPND>  (21) 
    udp_gluA.pdb 

>  <AUTHOR>  (21) 
    GENERATED BY OPEN BABEL 3.1.1

>  <MASTER>  (21) 
        0    0    0    0    0    0    0    0   56    0   56    0

>  <minimizedAffinity>  (21) 
-7.80245

>  <CNNscore>  (21) 
0.7265995741

>  <CNNaffinity>  (21) 
4.5348625183

>  <CNN_VS>  (21) 
3.2950291634

>  <CNNaffinity_variance>  (21) 
0.4145235419

$$$$
22
     RDKit          3D

 43 45  0  0  0  0  0  0  0  0999 V2000
   19.8800   70.9836   -3.0579 P   0  0  2  0  0  0  0  0  0  0  0  0
   20.4558   71.7971   -4.3329 O   0  0  0  0  0  0  0  0  0  0  0  0
   20.1593   69.5093   -3.0682 O   0  0  0  0  0  0  0  0  0  0  0  0
   18.3181   71.4025   -3.0030 O   0  0  0  0  0  0  0  0  0  0  0  0
   17.3415   70.3785   -3.0500 C   0  0  0  0  0  0  0  0  0  0  0  0
   16.0931   71.6179   -4.6880 O   0  0  0  0  0  0  0  0  0  0  0  0
   13.6326   70.6437   -3.2781 O   0  0  0  0  0  0  0  0  0  0  0  0
   13.7774   68.9857   -5.4382 O   0  0  0  0  0  0  0  0  0  0  0  0
   14.8715   69.9706   -3.5029 C   0  0  1  0  0  0  0  0  0  0  0  0
   14.9803   69.5429   -4.9512 C   0  0  2  0  0  0  0  0  0  0  0  0
   15.9909   70.9963   -3.3886 C   0  0  1  0  0  0  0  0  0  0  0  0
   15.3407   70.8484   -5.6393 C   0  0  2  0  0  0  0  0  0  0  0  0
   12.9021   70.0085   -3.3460 H   0  0  0  0  0  0  0  0  0  0  0  0
   13.5920   68.1565   -4.9691 H   0  0  0  0  0  0  0  0  0  0  0  0
   14.2951   70.4434   -8.2315 O   0  0  0  0  0  0  0  0  0  0  0  0
   18.5055   70.0826  -10.0716 O   0  0  0  0  0  0  0  0  0  0  0  0
   16.1410   70.6461   -6.8138 N   0  0  0  0  0  0  0  0  0  0  0  0
   16.3931   70.2631   -9.1453 N   0  0  0  0  0  0  0  0  0  0  0  0
   15.5167   70.4516   -8.0686 C   0  0  0  0  0  0  0  0  0  0  0  0
   17.5272   70.6433   -6.7164 C   0  0  0  0  0  0  0  0  0  0  0  0
   18.3495   70.4624   -7.7518 C   0  0  0  0  0  0  0  0  0  0  0  0
   17.7777   70.2515   -9.0979 C   0  0  0  0  0  0  0  0  0  0  0  0
   15.9817   70.1236  -10.0288 H   0  0  0  0  0  0  0  0  0  0  0  0
   20.5142   71.7804   -1.8026 O   0  0  0  0  0  0  0  0  0  0  0  0
   22.0477   72.1414   -1.4398 P   0  0  2  0  0  0  0  0  0  0  0  0
   22.8528   70.8021   -1.8620 O   0  0  0  0  0  0  0  0  0  0  0  0
   22.2597   72.5673   -0.0158 O   0  0  0  0  0  0  0  0  0  0  0  0
   22.4805   73.2402   -2.5387 O   0  0  0  0  0  0  0  0  0  0  0  0
   23.7778   75.2216   -2.5246 O   0  0  0  0  0  0  0  0  0  0  0  0
   20.6045   76.3117   -4.9349 O   0  0  0  0  0  0  0  0  0  0  0  0
   20.1512   74.7597   -2.5018 O   0  0  0  0  0  0  0  0  0  0  0  0
   23.1910   75.7033   -6.1143 O   0  0  0  0  0  0  0  0  0  0  0  0
   21.5603   75.4183   -4.3637 C   0  0  2  0  0  0  0  0  0  0  0  0
   21.3836   75.3823   -2.8455 C   0  0  2  0  0  0  0  0  0  0  0  0
   22.9578   75.9267   -4.7250 C   0  0  1  0  0  0  0  0  0  0  0  0
   22.5297   74.6198   -2.1792 C   0  0  1  0  0  0  0  0  0  0  0  0
   24.0377   75.2025   -3.9265 C   0  0  1  0  0  0  0  0  0  0  0  0
   19.7086   76.0087   -4.7183 H   0  0  0  0  0  0  0  0  0  0  0  0
   19.4196   75.2383   -2.9214 H   0  0  0  0  0  0  0  0  0  0  0  0
   22.5102   76.1589   -6.6338 H   0  0  0  0  0  0  0  0  0  0  0  0
   25.8310   76.2160   -2.8046 O   0  0  0  0  0  0  0  0  0  0  0  0
   25.9092   76.1928   -5.0833 O   0  0  0  0  0  0  0  0  0  0  0  0
   25.3459   75.9160   -4.0349 C   0  0  0  0  0  0  0  0  0  0  0  0
  1  4  1  0
  1 24  1  0
  1  2  1  6
  1  3  2  0
 25 28  1  0
 25 24  1  0
 25 26  1  6
 25 27  2  0
  6 11  1  0
  6 12  1  0
 29 36  1  0
 29 37  1  0
  9  7  1  6
  7 13  1  0
 10  8  1  6
  8 14  1  0
  4  5  1  0
 36 28  1  6
 33 30  1  6
 30 38  1  0
 34 31  1  6
 31 39  1  0
 35 32  1  6
 32 40  1  0
 41 43  1  0
 15 19  2  0
 42 43  2  0
 16 22  2  0
 12 17  1  6
 17 19  1  0
 17 20  1  0
 18 19  1  0
 18 22  1  0
 18 23  1  0
  9 10  1  0
  9 11  1  0
 10 12  1  0
 11  5  1  6
 33 34  1  0
 33 35  1  0
 34 36  1  0
 35 37  1  0
 37 43  1  1
 20 21  2  0
 21 22  1  0
M  CHG  3   2  -1  26  -1  41  -1
M  END
>  <COMPND>  (22) 
    udp_gluA.pdb 

>  <AUTHOR>  (22) 
    GENERATED BY OPEN BABEL 3.1.1

>  <MASTER>  (22) 
        0    0    0    0    0    0    0    0   56    0   56    0

>  <minimizedAffinity>  (22) 
-7.10535

>  <CNNscore>  (22) 
0.6844694614

>  <CNNaffinity>  (22) 
4.6767945290

>  <CNN_VS>  (22) 
3.2011229992

>  <CNNaffinity_variance>  (22) 
0.1598665118

$$$$
23
     RDKit          3D

 43 45  0  0  0  0  0  0  0  0999 V2000
   19.6320   72.0585   -3.3486 P   0  0  2  0  0  0  0  0  0  0  0  0
   19.6597   73.4932   -4.0969 O   0  0  0  0  0  0  0  0  0  0  0  0
   20.0361   70.8915   -4.2010 O   0  0  0  0  0  0  0  0  0  0  0  0
   18.1471   71.9817   -2.7106 O   0  0  0  0  0  0  0  0  0  0  0  0
   17.3218   70.8823   -3.0490 C   0  0  0  0  0  0  0  0  0  0  0  0
   16.0100   71.9057   -4.7838 O   0  0  0  0  0  0  0  0  0  0  0  0
   13.6039   70.9382   -3.2784 O   0  0  0  0  0  0  0  0  0  0  0  0
   13.8302   69.1033   -5.2829 O   0  0  0  0  0  0  0  0  0  0  0  0
   14.8752   70.3111   -3.4495 C   0  0  1  0  0  0  0  0  0  0  0  0
   15.0038   69.7619   -4.8545 C   0  0  2  0  0  0  0  0  0  0  0  0
   15.9411   71.3982   -3.4336 C   0  0  1  0  0  0  0  0  0  0  0  0
   15.2964   71.0173   -5.6584 C   0  0  2  0  0  0  0  0  0  0  0  0
   12.9066   70.2634   -3.2853 H   0  0  0  0  0  0  0  0  0  0  0  0
   13.6878   68.3110   -4.7408 H   0  0  0  0  0  0  0  0  0  0  0  0
   14.2678   70.4228   -8.2206 O   0  0  0  0  0  0  0  0  0  0  0  0
   18.4907   70.0149  -10.0218 O   0  0  0  0  0  0  0  0  0  0  0  0
   16.1046   70.7516   -6.8147 N   0  0  0  0  0  0  0  0  0  0  0  0
   16.3720   70.2192   -9.1150 N   0  0  0  0  0  0  0  0  0  0  0  0
   15.4884   70.4633   -8.0554 C   0  0  0  0  0  0  0  0  0  0  0  0
   17.4902   70.7797   -6.7138 C   0  0  0  0  0  0  0  0  0  0  0  0
   18.3194   70.5451   -7.7328 C   0  0  0  0  0  0  0  0  0  0  0  0
   17.7564   70.2352   -9.0634 C   0  0  0  0  0  0  0  0  0  0  0  0
   15.9664   70.0142   -9.9884 H   0  0  0  0  0  0  0  0  0  0  0  0
   20.5706   72.3052   -2.0560 O   0  0  0  0  0  0  0  0  0  0  0  0
   21.9887   71.6536   -1.6341 P   0  0  2  0  0  0  0  0  0  0  0  0
   22.9223   71.9303   -2.9273 O   0  0  0  0  0  0  0  0  0  0  0  0
   21.9068   70.2106   -1.2279 O   0  0  0  0  0  0  0  0  0  0  0  0
   22.5687   72.6379   -0.4951 O   0  0  0  0  0  0  0  0  0  0  0  0
   21.8311   74.0570    1.2517 O   0  0  0  0  0  0  0  0  0  0  0  0
   24.3401   76.5647   -0.8659 O   0  0  0  0  0  0  0  0  0  0  0  0
   22.5022   74.7792   -2.2689 O   0  0  0  0  0  0  0  0  0  0  0  0
   25.2147   75.4165    1.6575 O   0  0  0  0  0  0  0  0  0  0  0  0
   23.8799   75.3174   -0.3458 C   0  0  2  0  0  0  0  0  0  0  0  0
   22.4718   75.0330   -0.8692 C   0  0  2  0  0  0  0  0  0  0  0  0
   23.8702   75.4164    1.1813 C   0  0  1  0  0  0  0  0  0  0  0  0
   21.8569   73.8270   -0.1576 C   0  0  1  0  0  0  0  0  0  0  0  0
   23.1297   74.2402    1.8111 C   0  0  1  0  0  0  0  0  0  0  0  0
   24.3546   76.5254   -1.8352 H   0  0  0  0  0  0  0  0  0  0  0  0
   22.8915   75.5402   -2.7267 H   0  0  0  0  0  0  0  0  0  0  0  0
   25.6971   76.1603    1.2640 H   0  0  0  0  0  0  0  0  0  0  0  0
   23.9053   74.1779    4.0238 O   0  0  0  0  0  0  0  0  0  0  0  0
   21.7905   74.9600    3.6846 O   0  0  0  0  0  0  0  0  0  0  0  0
   22.8396   74.5065    3.2524 C   0  0  0  0  0  0  0  0  0  0  0  0
  1  4  1  0
  1 24  1  0
  1  2  1  6
  1  3  2  0
 25 28  1  0
 25 24  1  0
 25 26  1  6
 25 27  2  0
  6 11  1  0
  6 12  1  0
 29 36  1  0
 29 37  1  0
  9  7  1  6
  7 13  1  0
 10  8  1  6
  8 14  1  0
  4  5  1  0
 36 28  1  1
 33 30  1  6
 30 38  1  0
 34 31  1  6
 31 39  1  0
 35 32  1  1
 32 40  1  0
 41 43  1  0
 15 19  2  0
 42 43  2  0
 16 22  2  0
 12 17  1  6
 17 19  1  0
 17 20  1  0
 18 19  1  0
 18 22  1  0
 18 23  1  0
  9 10  1  0
  9 11  1  0
 10 12  1  0
 11  5  1  6
 33 34  1  0
 33 35  1  0
 34 36  1  0
 35 37  1  0
 37 43  1  1
 20 21  2  0
 21 22  1  0
M  CHG  3   2  -1  26  -1  41  -1
M  END
>  <COMPND>  (23) 
    udp_gluA.pdb 

>  <AUTHOR>  (23) 
    GENERATED BY OPEN BABEL 3.1.1

>  <MASTER>  (23) 
        0    0    0    0    0    0    0    0   56    0   56    0

>  <minimizedAffinity>  (23) 
-7.20822

>  <CNNscore>  (23) 
0.6346337795

>  <CNNaffinity>  (23) 
4.3803339005

>  <CNN_VS>  (23) 
2.7799079418

>  <CNNaffinity_variance>  (23) 
0.0281896740

$$$$
24
     RDKit          3D

 43 45  0  0  0  0  0  0  0  0999 V2000
   18.8195   73.9210   -8.1004 P   0  0  2  0  0  0  0  0  0  0  0  0
   17.8466   74.9606   -8.8695 O   0  0  0  0  0  0  0  0  0  0  0  0
   20.0950   74.5147   -7.5784 O   0  0  0  0  0  0  0  0  0  0  0  0
   18.9900   72.7003   -9.1486 O   0  0  0  0  0  0  0  0  0  0  0  0
   19.6849   71.5405   -8.7285 C   0  0  0  0  0  0  0  0  0  0  0  0
   18.8108   69.3848   -8.1227 O   0  0  0  0  0  0  0  0  0  0  0  0
   17.1249   69.5804  -10.5948 O   0  0  0  0  0  0  0  0  0  0  0  0
   15.3658   70.2445   -8.6198 O   0  0  0  0  0  0  0  0  0  0  0  0
   17.5200   70.6090   -9.6868 C   0  0  1  0  0  0  0  0  0  0  0  0
   16.7370   70.4977   -8.3958 C   0  0  2  0  0  0  0  0  0  0  0  0
   18.9395   70.3084   -9.2253 C   0  0  1  0  0  0  0  0  0  0  0  0
   17.4386   69.3438   -7.6998 C   0  0  2  0  0  0  0  0  0  0  0  0
   16.2208   69.7509  -10.9034 H   0  0  0  0  0  0  0  0  0  0  0  0
   14.9644   71.0081   -9.0646 H   0  0  0  0  0  0  0  0  0  0  0  0
   15.1296   68.8660   -6.1452 O   0  0  0  0  0  0  0  0  0  0  0  0
   17.3579   69.7965   -2.2193 O   0  0  0  0  0  0  0  0  0  0  0  0
   17.3874   69.4539   -6.2694 N   0  0  0  0  0  0  0  0  0  0  0  0
   16.2414   69.3309   -4.1915 N   0  0  0  0  0  0  0  0  0  0  0  0
   16.1773   69.1925   -5.5842 C   0  0  0  0  0  0  0  0  0  0  0  0
   18.5265   69.8154   -5.5604 C   0  0  0  0  0  0  0  0  0  0  0  0
   18.5722   69.9431   -4.2328 C   0  0  0  0  0  0  0  0  0  0  0  0
   17.3503   69.6885   -3.4418 C   0  0  0  0  0  0  0  0  0  0  0  0
   15.4107   69.1560   -3.6928 H   0  0  0  0  0  0  0  0  0  0  0  0
   17.8550   73.2932   -6.9653 O   0  0  0  0  0  0  0  0  0  0  0  0
   17.6196   73.7127   -5.4218 P   0  0  2  0  0  0  0  0  0  0  0  0
   16.5692   72.6006   -4.8924 O   0  0  0  0  0  0  0  0  0  0  0  0
   17.1665   75.1313   -5.2315 O   0  0  0  0  0  0  0  0  0  0  0  0
   19.0061   73.3478   -4.6824 O   0  0  0  0  0  0  0  0  0  0  0  0
   19.7862   72.8556   -2.5011 O   0  0  0  0  0  0  0  0  0  0  0  0
   22.5562   75.6433   -3.7753 O   0  0  0  0  0  0  0  0  0  0  0  0
   19.7139   76.0155   -4.3385 O   0  0  0  0  0  0  0  0  0  0  0  0
   23.2590   72.8239   -3.6848 O   0  0  0  0  0  0  0  0  0  0  0  0
   21.6208   74.5748   -3.9213 C   0  0  2  0  0  0  0  0  0  0  0  0
   20.2405   75.0352   -3.4517 C   0  0  2  0  0  0  0  0  0  0  0  0
   22.1081   73.4001   -3.0700 C   0  0  1  0  0  0  0  0  0  0  0  0
   19.2675   73.8578   -3.3762 C   0  0  1  0  0  0  0  0  0  0  0  0
   21.0344   72.3237   -2.9393 C   0  0  1  0  0  0  0  0  0  0  0  0
   22.2672   76.4013   -4.3075 H   0  0  0  0  0  0  0  0  0  0  0  0
   20.3264   76.7654   -4.3914 H   0  0  0  0  0  0  0  0  0  0  0  0
   23.9499   73.4988   -3.7740 H   0  0  0  0  0  0  0  0  0  0  0  0
   21.0940   70.0857   -2.2397 O   0  0  0  0  0  0  0  0  0  0  0  0
   21.8678   71.6538   -0.7764 O   0  0  0  0  0  0  0  0  0  0  0  0
   21.3843   71.3541   -1.8578 C   0  0  0  0  0  0  0  0  0  0  0  0
  1  4  1  0
  1 24  1  0
  1  2  1  6
  1  3  2  0
 25 28  1  0
 25 24  1  0
 25 26  1  1
 25 27  2  0
  6 11  1  0
  6 12  1  0
 29 36  1  0
 29 37  1  0
  9  7  1  6
  7 13  1  0
 10  8  1  6
  8 14  1  0
  4  5  1  0
 36 28  1  6
 33 30  1  1
 30 38  1  0
 34 31  1  6
 31 39  1  0
 35 32  1  6
 32 40  1  0
 41 43  1  0
 15 19  2  0
 42 43  2  0
 16 22  2  0
 12 17  1  1
 17 19  1  0
 17 20  1  0
 18 19  1  0
 18 22  1  0
 18 23  1  0
  9 10  1  0
  9 11  1  0
 10 12  1  0
 11  5  1  1
 33 34  1  0
 33 35  1  0
 34 36  1  0
 35 37  1  0
 37 43  1  1
 20 21  2  0
 21 22  1  0
M  CHG  3   2  -1  26  -1  41  -1
M  END
>  <COMPND>  (24) 
    udp_gluA.pdb 

>  <AUTHOR>  (24) 
    GENERATED BY OPEN BABEL 3.1.1

>  <MASTER>  (24) 
        0    0    0    0    0    0    0    0   56    0   56    0

>  <minimizedAffinity>  (24) 
-7.83602

>  <CNNscore>  (24) 
0.6199419498

>  <CNNaffinity>  (24) 
4.4339423180

>  <CNN_VS>  (24) 
2.7487869263

>  <CNNaffinity_variance>  (24) 
0.6981568336

$$$$
25
     RDKit          3D

 43 45  0  0  0  0  0  0  0  0999 V2000
   18.7531   73.9564   -7.5712 P   0  0  2  0  0  0  0  0  0  0  0  0
   17.4562   73.7549   -6.6244 O   0  0  0  0  0  0  0  0  0  0  0  0
   18.7910   75.2527   -8.3262 O   0  0  0  0  0  0  0  0  0  0  0  0
   18.7859   72.6153   -8.4758 O   0  0  0  0  0  0  0  0  0  0  0  0
   19.2372   71.4111   -7.8835 C   0  0  0  0  0  0  0  0  0  0  0  0
   17.9483   69.4373   -7.4141 O   0  0  0  0  0  0  0  0  0  0  0  0
   16.9697   69.6294  -10.2420 O   0  0  0  0  0  0  0  0  0  0  0  0
   14.8878   70.6673   -8.8192 O   0  0  0  0  0  0  0  0  0  0  0  0
   17.2679   70.6745   -9.3160 C   0  0  1  0  0  0  0  0  0  0  0  0
   16.1826   70.7686   -8.2646 C   0  0  2  0  0  0  0  0  0  0  0  0
   18.4731   70.2422   -8.4920 C   0  0  1  0  0  0  0  0  0  0  0  0
   16.5224   69.6002   -7.3551 C   0  0  2  0  0  0  0  0  0  0  0  0
   16.2028   69.8827  -10.7799 H   0  0  0  0  0  0  0  0  0  0  0  0
   14.7194   71.4342   -9.3897 H   0  0  0  0  0  0  0  0  0  0  0  0
   13.9426   69.0986   -6.3209 O   0  0  0  0  0  0  0  0  0  0  0  0
   15.1500   70.5407   -2.1130 O   0  0  0  0  0  0  0  0  0  0  0  0
   16.1353   69.8355   -5.9929 N   0  0  0  0  0  0  0  0  0  0  0  0
   14.5461   69.8183   -4.2264 N   0  0  0  0  0  0  0  0  0  0  0  0
   14.8139   69.5499   -5.5752 C   0  0  0  0  0  0  0  0  0  0  0  0
   17.0593   70.3416   -5.0868 C   0  0  0  0  0  0  0  0  0  0  0  0
   16.7893   70.5921   -3.8042 C   0  0  0  0  0  0  0  0  0  0  0  0
   15.4316   70.3221   -3.2874 C   0  0  0  0  0  0  0  0  0  0  0  0
   13.6322   69.6293   -3.9127 H   0  0  0  0  0  0  0  0  0  0  0  0
   19.9861   73.7359   -6.5496 O   0  0  0  0  0  0  0  0  0  0  0  0
   20.9254   74.7991   -5.7743 P   0  0  2  0  0  0  0  0  0  0  0  0
   19.9619   76.0887   -5.6044 O   0  0  0  0  0  0  0  0  0  0  0  0
   22.2280   75.0868   -6.4630 O   0  0  0  0  0  0  0  0  0  0  0  0
   21.0741   74.2025   -4.2828 O   0  0  0  0  0  0  0  0  0  0  0  0
   20.0168   72.3394   -3.2728 O   0  0  0  0  0  0  0  0  0  0  0  0
   20.4766   74.8909   -0.0562 O   0  0  0  0  0  0  0  0  0  0  0  0
   19.6162   75.9199   -2.6515 O   0  0  0  0  0  0  0  0  0  0  0  0
   22.2278   72.5899   -0.3555 O   0  0  0  0  0  0  0  0  0  0  0  0
   20.8201   74.2974   -1.3083 C   0  0  2  0  0  0  0  0  0  0  0  0
   19.6954   74.5396   -2.3152 C   0  0  2  0  0  0  0  0  0  0  0  0
   21.0179   72.7969   -1.0820 C   0  0  1  0  0  0  0  0  0  0  0  0
   19.9199   73.7280   -3.5919 C   0  0  1  0  0  0  0  0  0  0  0  0
   21.1078   72.0411   -2.4046 C   0  0  1  0  0  0  0  0  0  0  0  0
   20.3459   75.8448   -0.1754 H   0  0  0  0  0  0  0  0  0  0  0  0
   19.4741   76.4409   -1.8460 H   0  0  0  0  0  0  0  0  0  0  0  0
   22.1836   73.0659    0.4885 H   0  0  0  0  0  0  0  0  0  0  0  0
   21.9410   70.1159   -1.3552 O   0  0  0  0  0  0  0  0  0  0  0  0
   20.1017   69.8654   -2.6794 O   0  0  0  0  0  0  0  0  0  0  0  0
   20.9692   70.5697   -2.1852 C   0  0  0  0  0  0  0  0  0  0  0  0
  1  4  1  0
  1 24  1  0
  1  2  1  1
  1  3  2  0
 25 28  1  0
 25 24  1  0
 25 26  1  1
 25 27  2  0
  6 11  1  0
  6 12  1  0
 29 36  1  0
 29 37  1  0
  9  7  1  6
  7 13  1  0
 10  8  1  6
  8 14  1  0
  4  5  1  0
 36 28  1  1
 33 30  1  1
 30 38  1  0
 34 31  1  6
 31 39  1  0
 35 32  1  6
 32 40  1  0
 41 43  1  0
 15 19  2  0
 42 43  2  0
 16 22  2  0
 12 17  1  1
 17 19  1  0
 17 20  1  0
 18 19  1  0
 18 22  1  0
 18 23  1  0
  9 10  1  0
  9 11  1  0
 10 12  1  0
 11  5  1  1
 33 34  1  0
 33 35  1  0
 34 36  1  0
 35 37  1  0
 37 43  1  1
 20 21  2  0
 21 22  1  0
M  CHG  3   2  -1  26  -1  41  -1
M  END
>  <COMPND>  (25) 
    udp_gluA.pdb 

>  <AUTHOR>  (25) 
    GENERATED BY OPEN BABEL 3.1.1

>  <MASTER>  (25) 
        0    0    0    0    0    0    0    0   56    0   56    0

>  <minimizedAffinity>  (25) 
-7.63328

>  <CNNscore>  (25) 
0.6123819351

>  <CNNaffinity>  (25) 
4.4150876999

>  <CNN_VS>  (25) 
2.7037198544

>  <CNNaffinity_variance>  (25) 
0.4373027682

$$$$
26
     RDKit          3D

 43 45  0  0  0  0  0  0  0  0999 V2000
   17.4500   73.8743   -6.1411 P   0  0  2  0  0  0  0  0  0  0  0  0
   16.1940   73.3601   -7.0225 O   0  0  0  0  0  0  0  0  0  0  0  0
   17.4099   75.3273   -5.7684 O   0  0  0  0  0  0  0  0  0  0  0  0
   18.7418   73.4029   -6.9937 O   0  0  0  0  0  0  0  0  0  0  0  0
   18.6081   73.2501   -8.3948 C   0  0  0  0  0  0  0  0  0  0  0  0
   19.0351   70.9926   -7.6883 O   0  0  0  0  0  0  0  0  0  0  0  0
   19.3199   70.3326  -10.5994 O   0  0  0  0  0  0  0  0  0  0  0  0
   16.8004   69.4562  -10.0335 O   0  0  0  0  0  0  0  0  0  0  0  0
   18.4345   71.2554   -9.9645 C   0  0  1  0  0  0  0  0  0  0  0  0
   17.3234   70.5116   -9.2542 C   0  0  2  0  0  0  0  0  0  0  0  0
   19.1803   71.8987   -8.8033 C   0  0  1  0  0  0  0  0  0  0  0  0
   18.0247   70.0202   -7.9994 C   0  0  2  0  0  0  0  0  0  0  0  0
   18.8655   69.9089  -11.3449 H   0  0  0  0  0  0  0  0  0  0  0  0
   16.3641   69.8206  -10.8201 H   0  0  0  0  0  0  0  0  0  0  0  0
   18.8410   69.4520   -5.3561 O   0  0  0  0  0  0  0  0  0  0  0  0
   14.5071   69.5904   -3.7935 O   0  0  0  0  0  0  0  0  0  0  0  0
   17.1305   69.9022   -6.8825 N   0  0  0  0  0  0  0  0  0  0  0  0
   16.6816   69.5205   -4.5806 N   0  0  0  0  0  0  0  0  0  0  0  0
   17.6430   69.6140   -5.5955 C   0  0  0  0  0  0  0  0  0  0  0  0
   15.7639   70.0727   -7.0671 C   0  0  0  0  0  0  0  0  0  0  0  0
   14.8598   69.9807   -6.0899 C   0  0  0  0  0  0  0  0  0  0  0  0
   15.3121   69.6814   -4.7154 C   0  0  0  0  0  0  0  0  0  0  0  0
   17.0142   69.3186   -3.6761 H   0  0  0  0  0  0  0  0  0  0  0  0
   17.4527   72.8568   -4.8850 O   0  0  0  0  0  0  0  0  0  0  0  0
   17.4905   73.1360   -3.2931 P   0  0  2  0  0  0  0  0  0  0  0  0
   16.7422   71.8415   -2.6727 O   0  0  0  0  0  0  0  0  0  0  0  0
   16.8925   74.4509   -2.8841 O   0  0  0  0  0  0  0  0  0  0  0  0
   19.0388   72.9475   -2.8812 O   0  0  0  0  0  0  0  0  0  0  0  0
   21.0139   72.9224   -4.1879 O   0  0  0  0  0  0  0  0  0  0  0  0
   21.9270   70.1850   -1.2314 O   0  0  0  0  0  0  0  0  0  0  0  0
   19.2769   70.2085   -2.4605 O   0  0  0  0  0  0  0  0  0  0  0  0
   23.0872   72.8496   -1.1616 O   0  0  0  0  0  0  0  0  0  0  0  0
   21.3104   71.3469   -1.7862 C   0  0  2  0  0  0  0  0  0  0  0  0
   20.3983   70.9391   -2.9434 C   0  0  2  0  0  0  0  0  0  0  0  0
   22.4181   72.2780   -2.2842 C   0  0  1  0  0  0  0  0  0  0  0  0
   19.9012   72.1673   -3.7072 C   0  0  1  0  0  0  0  0  0  0  0  0
   21.8534   73.4066   -3.1420 C   0  0  1  0  0  0  0  0  0  0  0  0
   21.2423   69.5784   -0.9083 H   0  0  0  0  0  0  0  0  0  0  0  0
   19.5850   69.4279   -1.9746 H   0  0  0  0  0  0  0  0  0  0  0  0
   23.4512   72.1417   -0.6073 H   0  0  0  0  0  0  0  0  0  0  0  0
   23.5298   75.0466   -3.1026 O   0  0  0  0  0  0  0  0  0  0  0  0
   23.2742   73.8668   -5.0370 O   0  0  0  0  0  0  0  0  0  0  0  0
   22.9453   74.1056   -3.8847 C   0  0  0  0  0  0  0  0  0  0  0  0
  1  4  1  0
  1 24  1  0
  1  2  1  6
  1  3  2  0
 25 28  1  0
 25 24  1  0
 25 26  1  1
 25 27  2  0
  6 11  1  0
  6 12  1  0
 29 36  1  0
 29 37  1  0
  9  7  1  1
  7 13  1  0
 10  8  1  6
  8 14  1  0
  4  5  1  0
 36 28  1  1
 33 30  1  6
 30 38  1  0
 34 31  1  1
 31 39  1  0
 35 32  1  1
 32 40  1  0
 41 43  1  0
 15 19  2  0
 42 43  2  0
 16 22  2  0
 12 17  1  1
 17 19  1  0
 17 20  1  0
 18 19  1  0
 18 22  1  0
 18 23  1  0
  9 10  1  0
  9 11  1  0
 10 12  1  0
 11  5  1  1
 33 34  1  0
 33 35  1  0
 34 36  1  0
 35 37  1  0
 37 43  1  6
 20 21  2  0
 21 22  1  0
M  CHG  3   2  -1  26  -1  41  -1
M  END
>  <COMPND>  (26) 
    udp_gluA.pdb 

>  <AUTHOR>  (26) 
    GENERATED BY OPEN BABEL 3.1.1

>  <MASTER>  (26) 
        0    0    0    0    0    0    0    0   56    0   56    0

>  <minimizedAffinity>  (26) 
-7.47688

>  <CNNscore>  (26) 
0.5211081505

>  <CNNaffinity>  (26) 
4.2917985916

>  <CNN_VS>  (26) 
2.2364912033

>  <CNNaffinity_variance>  (26) 
0.8955334425

$$$$
27
     RDKit          3D

 43 45  0  0  0  0  0  0  0  0999 V2000
   19.8772   73.3557   -7.6423 P   0  0  2  0  0  0  0  0  0  0  0  0
   19.0403   74.6919   -8.0073 O   0  0  0  0  0  0  0  0  0  0  0  0
   21.3684   73.4986   -7.7291 O   0  0  0  0  0  0  0  0  0  0  0  0
   19.2241   72.2175   -8.5888 O   0  0  0  0  0  0  0  0  0  0  0  0
   19.9838   71.0572   -8.8734 C   0  0  0  0  0  0  0  0  0  0  0  0
   18.7694   69.0818   -8.2405 O   0  0  0  0  0  0  0  0  0  0  0  0
   17.1377   69.5164  -10.7183 O   0  0  0  0  0  0  0  0  0  0  0  0
   15.5110   70.4857   -8.7561 O   0  0  0  0  0  0  0  0  0  0  0  0
   17.6957   70.4789   -9.8235 C   0  0  1  0  0  0  0  0  0  0  0  0
   16.9052   70.5145   -8.5327 C   0  0  2  0  0  0  0  0  0  0  0  0
   19.0471   69.9568   -9.3552 C   0  0  1  0  0  0  0  0  0  0  0  0
   17.4091   69.2712   -7.8198 C   0  0  2  0  0  0  0  0  0  0  0  0
   16.2735   69.8280  -11.0310 H   0  0  0  0  0  0  0  0  0  0  0  0
   15.2397   71.2985   -9.2119 H   0  0  0  0  0  0  0  0  0  0  0  0
   15.1086   68.8709   -6.2311 O   0  0  0  0  0  0  0  0  0  0  0  0
   17.4017   69.8224   -2.3478 O   0  0  0  0  0  0  0  0  0  0  0  0
   17.3768   69.4077   -6.3911 N   0  0  0  0  0  0  0  0  0  0  0  0
   16.2527   69.3462   -4.2986 N   0  0  0  0  0  0  0  0  0  0  0  0
   16.1695   69.1846   -5.6879 C   0  0  0  0  0  0  0  0  0  0  0  0
   18.5315   69.7570   -5.7015 C   0  0  0  0  0  0  0  0  0  0  0  0
   18.5953   69.9071   -4.3771 C   0  0  0  0  0  0  0  0  0  0  0  0
   17.3776   69.6930   -3.5680 C   0  0  0  0  0  0  0  0  0  0  0  0
   15.4242   69.1981   -3.7876 H   0  0  0  0  0  0  0  0  0  0  0  0
   19.3221   72.9697   -6.1740 O   0  0  0  0  0  0  0  0  0  0  0  0
   18.7211   73.8922   -4.9901 P   0  0  2  0  0  0  0  0  0  0  0  0
   19.4509   75.3178   -5.2254 O   0  0  0  0  0  0  0  0  0  0  0  0
   18.9046   73.3234   -3.6129 O   0  0  0  0  0  0  0  0  0  0  0  0
   17.1845   74.1472   -5.4099 O   0  0  0  0  0  0  0  0  0  0  0  0
   15.6448   72.4095   -4.9418 O   0  0  0  0  0  0  0  0  0  0  0  0
   13.4472   74.8195   -7.4777 O   0  0  0  0  0  0  0  0  0  0  0  0
   16.2616   74.2650   -8.0311 O   0  0  0  0  0  0  0  0  0  0  0  0
   12.9116   74.8361   -4.6205 O   0  0  0  0  0  0  0  0  0  0  0  0
   14.4198   74.5285   -6.4740 C   0  0  2  0  0  0  0  0  0  0  0  0
   15.4833   73.5921   -7.0481 C   0  0  2  0  0  0  0  0  0  0  0  0
   13.7016   73.8614   -5.2988 C   0  0  1  0  0  0  0  0  0  0  0  0
   16.4101   73.0761   -5.9465 C   0  0  1  0  0  0  0  0  0  0  0  0
   14.6943   73.2620   -4.3070 C   0  0  1  0  0  0  0  0  0  0  0  0
   13.8806   75.2441   -8.2347 H   0  0  0  0  0  0  0  0  0  0  0  0
   15.6798   74.5954   -8.7330 H   0  0  0  0  0  0  0  0  0  0  0  0
   12.2756   75.2255   -5.2407 H   0  0  0  0  0  0  0  0  0  0  0  0
   13.1469   73.0315   -2.5594 O   0  0  0  0  0  0  0  0  0  0  0  0
   14.1759   71.1341   -3.2946 O   0  0  0  0  0  0  0  0  0  0  0  0
   14.0025   72.3422   -3.3543 C   0  0  0  0  0  0  0  0  0  0  0  0
  1  4  1  0
  1 24  1  0
  1  2  1  6
  1  3  2  0
 25 28  1  0
 25 24  1  0
 25 26  1  1
 25 27  2  0
  6 11  1  0
  6 12  1  0
 29 36  1  0
 29 37  1  0
  9  7  1  6
  7 13  1  0
 10  8  1  6
  8 14  1  0
  4  5  1  0
 36 28  1  1
 33 30  1  6
 30 38  1  0
 34 31  1  6
 31 39  1  0
 35 32  1  1
 32 40  1  0
 41 43  1  0
 15 19  2  0
 42 43  2  0
 16 22  2  0
 12 17  1  1
 17 19  1  0
 17 20  1  0
 18 19  1  0
 18 22  1  0
 18 23  1  0
  9 10  1  0
  9 11  1  0
 10 12  1  0
 11  5  1  1
 33 34  1  0
 33 35  1  0
 34 36  1  0
 35 37  1  0
 37 43  1  1
 20 21  2  0
 21 22  1  0
M  CHG  3   2  -1  26  -1  41  -1
M  END
>  <COMPND>  (27) 
    udp_gluA.pdb 

>  <AUTHOR>  (27) 
    GENERATED BY OPEN BABEL 3.1.1

>  <MASTER>  (27) 
        0    0    0    0    0    0    0    0   56    0   56    0

>  <minimizedAffinity>  (27) 
-6.61555

>  <CNNscore>  (27) 
0.5115354657

>  <CNNaffinity>  (27) 
4.0767822266

>  <CNN_VS>  (27) 
2.0854187012

>  <CNNaffinity_variance>  (27) 
0.6713683009

$$$$
28
     RDKit          3D

 43 45  0  0  0  0  0  0  0  0999 V2000
   15.9632   71.1361   -3.9552 P   0  0  2  0  0  0  0  0  0  0  0  0
   15.6307   70.0673   -2.7864 O   0  0  0  0  0  0  0  0  0  0  0  0
   15.1055   72.3675   -3.9502 O   0  0  0  0  0  0  0  0  0  0  0  0
   15.9195   70.2549   -5.3114 O   0  0  0  0  0  0  0  0  0  0  0  0
   14.6712   70.0574   -5.9495 C   0  0  0  0  0  0  0  0  0  0  0  0
   13.9751   71.1301   -7.9848 O   0  0  0  0  0  0  0  0  0  0  0  0
   16.5155   70.0838   -9.1861 O   0  0  0  0  0  0  0  0  0  0  0  0
   17.1318   72.6884   -8.6642 O   0  0  0  0  0  0  0  0  0  0  0  0
   16.2710   70.5603   -7.8626 C   0  0  1  0  0  0  0  0  0  0  0  0
   16.1470   72.0692   -7.8633 C   0  0  2  0  0  0  0  0  0  0  0  0
   14.8690   70.1255   -7.4583 C   0  0  1  0  0  0  0  0  0  0  0  0
   14.7419   72.2699   -8.4049 C   0  0  2  0  0  0  0  0  0  0  0  0
   17.4058   70.3495   -9.4665 H   0  0  0  0  0  0  0  0  0  0  0  0
   18.0082   72.5320   -8.2775 H   0  0  0  0  0  0  0  0  0  0  0  0
   15.0880   74.8439   -9.5145 O   0  0  0  0  0  0  0  0  0  0  0  0
   12.3211   76.7702   -6.3716 O   0  0  0  0  0  0  0  0  0  0  0  0
   14.1237   73.4616   -7.8965 N   0  0  0  0  0  0  0  0  0  0  0  0
   13.7104   75.8010   -7.9475 N   0  0  0  0  0  0  0  0  0  0  0  0
   14.3632   74.7053   -8.5273 C   0  0  0  0  0  0  0  0  0  0  0  0
   13.2899   73.3913   -6.7870 C   0  0  0  0  0  0  0  0  0  0  0  0
   12.6745   74.4444   -6.2458 C   0  0  0  0  0  0  0  0  0  0  0  0
   12.8725   75.7809   -6.8442 C   0  0  0  0  0  0  0  0  0  0  0  0
   13.8635   76.6779   -8.3681 H   0  0  0  0  0  0  0  0  0  0  0  0
   17.5426   71.4148   -3.7535 O   0  0  0  0  0  0  0  0  0  0  0  0
   18.7555   70.4179   -3.3677 P   0  0  2  0  0  0  0  0  0  0  0  0
   19.3446   69.9769   -4.8095 O   0  0  0  0  0  0  0  0  0  0  0  0
   18.3532   69.2707   -2.4868 O   0  0  0  0  0  0  0  0  0  0  0  0
   19.8903   71.3777   -2.7405 O   0  0  0  0  0  0  0  0  0  0  0  0
   21.5533   72.3328   -4.1303 O   0  0  0  0  0  0  0  0  0  0  0  0
   23.2520   72.7384   -0.3862 O   0  0  0  0  0  0  0  0  0  0  0  0
   21.8675   70.2744   -1.1251 O   0  0  0  0  0  0  0  0  0  0  0  0
   22.0938   75.0467   -1.7209 O   0  0  0  0  0  0  0  0  0  0  0  0
   22.1858   72.6705   -1.3331 C   0  0  2  0  0  0  0  0  0  0  0  0
   22.2108   71.3127   -2.0354 C   0  0  2  0  0  0  0  0  0  0  0  0
   22.3823   73.7986   -2.3483 C   0  0  1  0  0  0  0  0  0  0  0  0
   21.2336   71.2872   -3.2116 C   0  0  1  0  0  0  0  0  0  0  0  0
   21.4586   73.6325   -3.5515 C   0  0  1  0  0  0  0  0  0  0  0  0
   23.1482   72.0307    0.2692 H   0  0  0  0  0  0  0  0  0  0  0  0
   22.4833   70.2849   -0.3761 H   0  0  0  0  0  0  0  0  0  0  0  0
   22.6749   75.1647   -0.9533 H   0  0  0  0  0  0  0  0  0  0  0  0
   22.6526   73.8572   -5.5578 O   0  0  0  0  0  0  0  0  0  0  0  0
   21.5691   75.7064   -4.7795 O   0  0  0  0  0  0  0  0  0  0  0  0
   21.8783   74.5293   -4.6703 C   0  0  0  0  0  0  0  0  0  0  0  0
  1  4  1  0
  1 24  1  0
  1  2  1  1
  1  3  2  0
 25 28  1  0
 25 24  1  0
 25 26  1  6
 25 27  2  0
  6 11  1  0
  6 12  1  0
 29 36  1  0
 29 37  1  0
  9  7  1  6
  7 13  1  0
 10  8  1  6
  8 14  1  0
  4  5  1  0
 36 28  1  1
 33 30  1  1
 30 38  1  0
 34 31  1  1
 31 39  1  0
 35 32  1  1
 32 40  1  0
 41 43  1  0
 15 19  2  0
 42 43  2  0
 16 22  2  0
 12 17  1  1
 17 19  1  0
 17 20  1  0
 18 19  1  0
 18 22  1  0
 18 23  1  0
  9 10  1  0
  9 11  1  0
 10 12  1  0
 11  5  1  1
 33 34  1  0
 33 35  1  0
 34 36  1  0
 35 37  1  0
 37 43  1  6
 20 21  2  0
 21 22  1  0
M  CHG  3   2  -1  26  -1  41  -1
M  END
>  <COMPND>  (28) 
    udp_gluA.pdb 

>  <AUTHOR>  (28) 
    GENERATED BY OPEN BABEL 3.1.1

>  <MASTER>  (28) 
        0    0    0    0    0    0    0    0   56    0   56    0

>  <minimizedAffinity>  (28) 
-7.08563

>  <CNNscore>  (28) 
0.4651288986

>  <CNNaffinity>  (28) 
4.2872805595

>  <CNN_VS>  (28) 
1.9941381216

>  <CNNaffinity_variance>  (28) 
0.0669329464

$$$$
29
     RDKit          3D

 43 45  0  0  0  0  0  0  0  0999 V2000
   20.6238   73.1662   -7.6010 P   0  0  2  0  0  0  0  0  0  0  0  0
   19.8440   74.5840   -7.6215 O   0  0  0  0  0  0  0  0  0  0  0  0
   22.1064   73.2615   -7.3902 O   0  0  0  0  0  0  0  0  0  0  0  0
   20.1538   72.4444   -8.9707 O   0  0  0  0  0  0  0  0  0  0  0  0
   19.4102   71.2430   -8.8812 C   0  0  0  0  0  0  0  0  0  0  0  0
   17.1021   70.6038   -9.0857 O   0  0  0  0  0  0  0  0  0  0  0  0
   16.8176   72.9275  -10.9595 O   0  0  0  0  0  0  0  0  0  0  0  0
   15.7768   73.9047   -8.6362 O   0  0  0  0  0  0  0  0  0  0  0  0
   17.6186   72.8077   -9.7836 C   0  0  1  0  0  0  0  0  0  0  0  0
   16.7486   72.8838   -8.5468 C   0  0  2  0  0  0  0  0  0  0  0  0
   18.1437   71.3801   -9.7164 C   0  0  1  0  0  0  0  0  0  0  0  0
   16.1352   71.4945   -8.5067 C   0  0  2  0  0  0  0  0  0  0  0  0
   16.4708   73.8315  -11.0241 H   0  0  0  0  0  0  0  0  0  0  0  0
   16.2172   74.7692   -8.6584 H   0  0  0  0  0  0  0  0  0  0  0  0
   13.7466   72.0897   -7.1222 O   0  0  0  0  0  0  0  0  0  0  0  0
   15.1274   69.7840   -3.3778 O   0  0  0  0  0  0  0  0  0  0  0  0
   15.8444   71.0623   -7.1690 N   0  0  0  0  0  0  0  0  0  0  0  0
   14.4370   70.9416   -5.2582 N   0  0  0  0  0  0  0  0  0  0  0  0
   14.6148   71.4157   -6.5647 C   0  0  0  0  0  0  0  0  0  0  0  0
   16.7701   70.2964   -6.4709 C   0  0  0  0  0  0  0  0  0  0  0  0
   16.5865   69.8517   -5.2262 C   0  0  0  0  0  0  0  0  0  0  0  0
   15.3286   70.1775   -4.5227 C   0  0  0  0  0  0  0  0  0  0  0  0
   13.5894   71.1767   -4.8160 H   0  0  0  0  0  0  0  0  0  0  0  0
   19.8339   72.3341   -6.4623 O   0  0  0  0  0  0  0  0  0  0  0  0
   19.5778   72.6550   -4.8986 P   0  0  2  0  0  0  0  0  0  0  0  0
   19.6662   71.1964   -4.2023 O   0  0  0  0  0  0  0  0  0  0  0  0
   18.3012   73.3955   -4.6230 O   0  0  0  0  0  0  0  0  0  0  0  0
   20.9131   73.4194   -4.4136 O   0  0  0  0  0  0  0  0  0  0  0  0
   20.2978   74.9223   -2.6898 O   0  0  0  0  0  0  0  0  0  0  0  0
   24.3672   75.5798   -2.9654 O   0  0  0  0  0  0  0  0  0  0  0  0
   22.7501   75.2714   -5.3788 O   0  0  0  0  0  0  0  0  0  0  0  0
   23.2863   74.0260   -0.7590 O   0  0  0  0  0  0  0  0  0  0  0  0
   23.1631   74.8157   -3.0319 C   0  0  2  0  0  0  0  0  0  0  0  0
   22.2222   75.4324   -4.0673 C   0  0  2  0  0  0  0  0  0  0  0  0
   22.5145   74.8336   -1.6460 C   0  0  1  0  0  0  0  0  0  0  0  0
   20.8387   74.7838   -4.0042 C   0  0  1  0  0  0  0  0  0  0  0  0
   21.0908   74.2862   -1.6900 C   0  0  1  0  0  0  0  0  0  0  0  0
   24.7970   75.5827   -3.8353 H   0  0  0  0  0  0  0  0  0  0  0  0
   23.6281   75.6804   -5.4260 H   0  0  0  0  0  0  0  0  0  0  0  0
   24.1948   74.3637   -0.7221 H   0  0  0  0  0  0  0  0  0  0  0  0
   19.1921   75.2415   -0.6983 O   0  0  0  0  0  0  0  0  0  0  0  0
   20.7514   74.3373    0.6982 O   0  0  0  0  0  0  0  0  0  0  0  0
   20.3597   74.6074   -0.4273 C   0  0  0  0  0  0  0  0  0  0  0  0
  1  4  1  0
  1 24  1  0
  1  2  1  6
  1  3  2  0
 25 28  1  0
 25 24  1  0
 25 26  1  1
 25 27  2  0
  6 11  1  0
  6 12  1  0
 29 36  1  0
 29 37  1  0
  9  7  1  6
  7 13  1  0
 10  8  1  6
  8 14  1  0
  4  5  1  0
 36 28  1  1
 33 30  1  1
 30 38  1  0
 34 31  1  6
 31 39  1  0
 35 32  1  1
 32 40  1  0
 41 43  1  0
 15 19  2  0
 42 43  2  0
 16 22  2  0
 12 17  1  1
 17 19  1  0
 17 20  1  0
 18 19  1  0
 18 22  1  0
 18 23  1  0
  9 10  1  0
  9 11  1  0
 10 12  1  0
 11  5  1  1
 33 34  1  0
 33 35  1  0
 34 36  1  0
 35 37  1  0
 37 43  1  1
 20 21  2  0
 21 22  1  0
M  CHG  3   2  -1  26  -1  41  -1
M  END
>  <COMPND>  (29) 
    udp_gluA.pdb 

>  <AUTHOR>  (29) 
    GENERATED BY OPEN BABEL 3.1.1

>  <MASTER>  (29) 
        0    0    0    0    0    0    0    0   56    0   56    0

>  <minimizedAffinity>  (29) 
-6.39141

>  <CNNscore>  (29) 
0.4627169371

>  <CNNaffinity>  (29) 
4.2405452728

>  <CNN_VS>  (29) 
1.9621721506

>  <CNNaffinity_variance>  (29) 
0.0548832230

$$$$
30
     RDKit          3D

 43 45  0  0  0  0  0  0  0  0999 V2000
   15.7291   70.2735   -3.8648 P   0  0  2  0  0  0  0  0  0  0  0  0
   15.9686   68.7908   -4.4673 O   0  0  0  0  0  0  0  0  0  0  0  0
   15.0971   70.3101   -2.5043 O   0  0  0  0  0  0  0  0  0  0  0  0
   14.9204   71.0429   -5.0362 O   0  0  0  0  0  0  0  0  0  0  0  0
   15.5432   72.1394   -5.6798 C   0  0  0  0  0  0  0  0  0  0  0  0
   16.2226   72.8636   -7.8688 O   0  0  0  0  0  0  0  0  0  0  0  0
   14.5098   70.6435   -8.9314 O   0  0  0  0  0  0  0  0  0  0  0  0
   17.0198   69.5905   -9.0958 O   0  0  0  0  0  0  0  0  0  0  0  0
   15.3121   70.6800   -7.7509 C   0  0  1  0  0  0  0  0  0  0  0  0
   16.7789   70.5733   -8.1106 C   0  0  2  0  0  0  0  0  0  0  0  0
   15.2281   72.0846   -7.1692 C   0  0  1  0  0  0  0  0  0  0  0  0
   17.0870   71.9785   -8.5987 C   0  0  2  0  0  0  0  0  0  0  0  0
   14.5477   69.7556   -9.3212 H   0  0  0  0  0  0  0  0  0  0  0  0
   16.8089   68.7139   -8.7365 H   0  0  0  0  0  0  0  0  0  0  0  0
   19.2806   71.0966  -10.1437 O   0  0  0  0  0  0  0  0  0  0  0  0
   22.2777   73.4878   -7.5857 O   0  0  0  0  0  0  0  0  0  0  0  0
   18.4513   72.3552   -8.3585 N   0  0  0  0  0  0  0  0  0  0  0  0
   20.7713   72.2876   -8.8676 N   0  0  0  0  0  0  0  0  0  0  0  0
   19.4788   71.8561   -9.1935 C   0  0  0  0  0  0  0  0  0  0  0  0
   18.7600   73.2103   -7.3076 C   0  0  0  0  0  0  0  0  0  0  0  0
   19.9969   73.6128   -7.0094 C   0  0  0  0  0  0  0  0  0  0  0  0
   21.1279   73.1365   -7.8324 C   0  0  0  0  0  0  0  0  0  0  0  0
   21.5036   71.9517   -9.4336 H   0  0  0  0  0  0  0  0  0  0  0  0
   17.2004   70.9385   -3.9419 O   0  0  0  0  0  0  0  0  0  0  0  0
   18.6570   70.3378   -3.5798 P   0  0  2  0  0  0  0  0  0  0  0  0
   19.2721   69.9604   -5.0288 O   0  0  0  0  0  0  0  0  0  0  0  0
   18.6275   69.1969   -2.6043 O   0  0  0  0  0  0  0  0  0  0  0  0
   19.5162   71.6133   -3.0924 O   0  0  0  0  0  0  0  0  0  0  0  0
   21.2200   72.9544   -4.0450 O   0  0  0  0  0  0  0  0  0  0  0  0
   22.5451   72.5508   -0.1528 O   0  0  0  0  0  0  0  0  0  0  0  0
   21.4190   70.2631   -1.5785 O   0  0  0  0  0  0  0  0  0  0  0  0
   21.3411   75.0461   -1.0329 O   0  0  0  0  0  0  0  0  0  0  0  0
   21.5751   72.6536   -1.1951 C   0  0  2  0  0  0  0  0  0  0  0  0
   21.7633   71.5035   -2.1847 C   0  0  2  0  0  0  0  0  0  0  0  0
   21.7763   73.9983   -1.8974 C   0  0  1  0  0  0  0  0  0  0  0  0
   20.8990   71.7062   -3.4299 C   0  0  1  0  0  0  0  0  0  0  0  0
   20.9778   74.0738   -3.1956 C   0  0  1  0  0  0  0  0  0  0  0  0
   22.4366   71.7038    0.3078 H   0  0  0  0  0  0  0  0  0  0  0  0
   21.9635   70.1281   -0.7875 H   0  0  0  0  0  0  0  0  0  0  0  0
   21.8414   75.0092   -0.2028 H   0  0  0  0  0  0  0  0  0  0  0  0
   20.4126   76.1113   -4.2107 O   0  0  0  0  0  0  0  0  0  0  0  0
   22.5520   75.3714   -4.4837 O   0  0  0  0  0  0  0  0  0  0  0  0
   21.4271   75.2301   -4.0282 C   0  0  0  0  0  0  0  0  0  0  0  0
  1  4  1  0
  1 24  1  0
  1  2  1  6
  1  3  2  0
 25 28  1  0
 25 24  1  0
 25 26  1  6
 25 27  2  0
  6 11  1  0
  6 12  1  0
 29 36  1  0
 29 37  1  0
  9  7  1  6
  7 13  1  0
 10  8  1  6
  8 14  1  0
  4  5  1  0
 36 28  1  1
 33 30  1  1
 30 38  1  0
 34 31  1  1
 31 39  1  0
 35 32  1  1
 32 40  1  0
 41 43  1  0
 15 19  2  0
 42 43  2  0
 16 22  2  0
 12 17  1  1
 17 19  1  0
 17 20  1  0
 18 19  1  0
 18 22  1  0
 18 23  1  0
  9 10  1  0
  9 11  1  0
 10 12  1  0
 11  5  1  1
 33 34  1  0
 33 35  1  0
 34 36  1  0
 35 37  1  0
 37 43  1  6
 20 21  2  0
 21 22  1  0
M  CHG  3   2  -1  26  -1  41  -1
M  END
>  <COMPND>  (30) 
    udp_gluA.pdb 

>  <AUTHOR>  (30) 
    GENERATED BY OPEN BABEL 3.1.1

>  <MASTER>  (30) 
        0    0    0    0    0    0    0    0   56    0   56    0

>  <minimizedAffinity>  (30) 
-8.15177

>  <CNNscore>  (30) 
0.4618068933

>  <CNNaffinity>  (30) 
4.2680063248

>  <CNN_VS>  (30) 
1.9709947109

>  <CNNaffinity_variance>  (30) 
0.4035201073

$$$$
31
     RDKit          3D

 43 45  0  0  0  0  0  0  0  0999 V2000
   18.0628   71.4489   -9.5687 P   0  0  2  0  0  0  0  0  0  0  0  0
   18.3906   70.2757  -10.6341 O   0  0  0  0  0  0  0  0  0  0  0  0
   17.7119   72.7758  -10.1754 O   0  0  0  0  0  0  0  0  0  0  0  0
   19.3438   71.4450   -8.5802 O   0  0  0  0  0  0  0  0  0  0  0  0
   19.1477   71.7780   -7.2182 C   0  0  0  0  0  0  0  0  0  0  0  0
   19.1046   73.6144   -5.6679 O   0  0  0  0  0  0  0  0  0  0  0  0
   20.0439   75.3193   -7.9488 O   0  0  0  0  0  0  0  0  0  0  0  0
   22.3389   74.8927   -6.5392 O   0  0  0  0  0  0  0  0  0  0  0  0
   20.3759   73.9666   -7.6352 C   0  0  1  0  0  0  0  0  0  0  0  0
   21.3194   73.9192   -6.4521 C   0  0  2  0  0  0  0  0  0  0  0  0
   19.1295   73.2945   -7.0759 C   0  0  1  0  0  0  0  0  0  0  0  0
   20.3761   74.1631   -5.2865 C   0  0  2  0  0  0  0  0  0  0  0  0
   20.8250   75.7694   -8.3080 H   0  0  0  0  0  0  0  0  0  0  0  0
   22.9126   74.6932   -7.2962 H   0  0  0  0  0  0  0  0  0  0  0  0
   19.5000   74.8641   -2.6947 O   0  0  0  0  0  0  0  0  0  0  0  0
   22.1399   71.6362   -0.7311 O   0  0  0  0  0  0  0  0  0  0  0  0
   20.8183   73.5223   -4.0804 N   0  0  0  0  0  0  0  0  0  0  0  0
   20.8164   73.2564   -1.7191 N   0  0  0  0  0  0  0  0  0  0  0  0
   20.3165   73.9507   -2.8287 C   0  0  0  0  0  0  0  0  0  0  0  0
   21.7369   72.4816   -4.1445 C   0  0  0  0  0  0  0  0  0  0  0  0
   22.2041   71.8294   -3.0782 C   0  0  0  0  0  0  0  0  0  0  0  0
   21.7309   72.2157   -1.7327 C   0  0  0  0  0  0  0  0  0  0  0  0
   20.4832   73.5382   -0.8366 H   0  0  0  0  0  0  0  0  0  0  0  0
   16.8984   70.7962   -8.6571 O   0  0  0  0  0  0  0  0  0  0  0  0
   15.5653   71.4455   -8.0130 P   0  0  2  0  0  0  0  0  0  0  0  0
   14.3804   70.5051   -8.5889 O   0  0  0  0  0  0  0  0  0  0  0  0
   15.3905   72.9081   -8.3035 O   0  0  0  0  0  0  0  0  0  0  0  0
   15.6491   71.0800   -6.4439 O   0  0  0  0  0  0  0  0  0  0  0  0
   17.2549   69.7042   -5.3774 O   0  0  0  0  0  0  0  0  0  0  0  0
   13.9756   69.2376   -2.9084 O   0  0  0  0  0  0  0  0  0  0  0  0
   13.6535   69.2485   -5.8119 O   0  0  0  0  0  0  0  0  0  0  0  0
   16.1969   70.9208   -2.0815 O   0  0  0  0  0  0  0  0  0  0  0  0
   14.8410   69.9292   -3.8088 C   0  0  2  0  0  0  0  0  0  0  0  0
   14.9045   69.1760   -5.1377 C   0  0  2  0  0  0  0  0  0  0  0  0
   16.2298   69.9994   -3.1698 C   0  0  1  0  0  0  0  0  0  0  0  0
   15.9926   69.7548   -6.0432 C   0  0  1  0  0  0  0  0  0  0  0  0
   17.2813   70.4660   -4.1724 C   0  0  1  0  0  0  0  0  0  0  0  0
   13.0868   69.1807   -3.2933 H   0  0  0  0  0  0  0  0  0  0  0  0
   12.9584   68.8831   -5.2430 H   0  0  0  0  0  0  0  0  0  0  0  0
   15.5314   70.6353   -1.4362 H   0  0  0  0  0  0  0  0  0  0  0  0
   18.8514   70.8759   -2.4788 O   0  0  0  0  0  0  0  0  0  0  0  0
   19.5015   69.5216   -4.1941 O   0  0  0  0  0  0  0  0  0  0  0  0
   18.6590   70.2193   -3.6496 C   0  0  0  0  0  0  0  0  0  0  0  0
  1  4  1  0
  1 24  1  0
  1  2  1  6
  1  3  2  0
 25 28  1  0
 25 24  1  0
 25 26  1  6
 25 27  2  0
  6 11  1  0
  6 12  1  0
 29 36  1  0
 29 37  1  0
  9  7  1  1
  7 13  1  0
 10  8  1  6
  8 14  1  0
  4  5  1  0
 36 28  1  1
 33 30  1  1
 30 38  1  0
 34 31  1  6
 31 39  1  0
 35 32  1  1
 32 40  1  0
 41 43  1  0
 15 19  2  0
 42 43  2  0
 16 22  2  0
 12 17  1  1
 17 19  1  0
 17 20  1  0
 18 19  1  0
 18 22  1  0
 18 23  1  0
  9 10  1  0
  9 11  1  0
 10 12  1  0
 11  5  1  1
 33 34  1  0
 33 35  1  0
 34 36  1  0
 35 37  1  0
 37 43  1  1
 20 21  2  0
 21 22  1  0
M  CHG  3   2  -1  26  -1  41  -1
M  END
>  <COMPND>  (31) 
    udp_gluA.pdb 

>  <AUTHOR>  (31) 
    GENERATED BY OPEN BABEL 3.1.1

>  <MASTER>  (31) 
        0    0    0    0    0    0    0    0   56    0   56    0

>  <minimizedAffinity>  (31) 
-7.20326

>  <CNNscore>  (31) 
0.4568975270

>  <CNNaffinity>  (31) 
4.0365948677

>  <CNN_VS>  (31) 
1.8443101645

>  <CNNaffinity_variance>  (31) 
0.7442958951

$$$$
32
     RDKit          3D

 43 45  0  0  0  0  0  0  0  0999 V2000
   17.9812   74.5925   -6.1536 P   0  0  2  0  0  0  0  0  0  0  0  0
   18.4092   75.4201   -4.8305 O   0  0  0  0  0  0  0  0  0  0  0  0
   18.9259   74.7182   -7.3127 O   0  0  0  0  0  0  0  0  0  0  0  0
   16.4595   75.0662   -6.4328 O   0  0  0  0  0  0  0  0  0  0  0  0
   16.1105   75.4842   -7.7397 C   0  0  0  0  0  0  0  0  0  0  0  0
   15.1746   73.6218   -8.9369 O   0  0  0  0  0  0  0  0  0  0  0  0
   12.6519   74.1418   -7.4016 O   0  0  0  0  0  0  0  0  0  0  0  0
   13.7417   72.0325   -6.0602 O   0  0  0  0  0  0  0  0  0  0  0  0
   14.0097   74.2680   -6.9783 C   0  0  1  0  0  0  0  0  0  0  0  0
   14.6169   72.9000   -6.7502 C   0  0  2  0  0  0  0  0  0  0  0  0
   14.8230   74.7852   -8.1569 C   0  0  1  0  0  0  0  0  0  0  0  0
   14.8980   72.4390   -8.1702 C   0  0  2  0  0  0  0  0  0  0  0  0
   12.1125   73.8128   -6.6650 H   0  0  0  0  0  0  0  0  0  0  0  0
   13.5946   72.3691   -5.1619 H   0  0  0  0  0  0  0  0  0  0  0  0
   14.9418   69.8078   -7.1448 O   0  0  0  0  0  0  0  0  0  0  0  0
   19.2916   69.1493   -8.5197 O   0  0  0  0  0  0  0  0  0  0  0  0
   16.0288   71.5580   -8.2466 N   0  0  0  0  0  0  0  0  0  0  0  0
   17.1085   69.4827   -7.8297 N   0  0  0  0  0  0  0  0  0  0  0  0
   15.9470   70.2555   -7.6999 C   0  0  0  0  0  0  0  0  0  0  0  0
   17.2009   71.9853   -8.8587 C   0  0  0  0  0  0  0  0  0  0  0  0
   18.2998   71.2372   -8.9749 C   0  0  0  0  0  0  0  0  0  0  0  0
   18.2979   69.8640   -8.4293 C   0  0  0  0  0  0  0  0  0  0  0  0
   17.0764   68.5729   -7.4548 H   0  0  0  0  0  0  0  0  0  0  0  0
   17.7965   73.0866   -5.5958 O   0  0  0  0  0  0  0  0  0  0  0  0
   17.4581   72.5379   -4.1132 P   0  0  2  0  0  0  0  0  0  0  0  0
   16.9938   71.0105   -4.3811 O   0  0  0  0  0  0  0  0  0  0  0  0
   16.4553   73.3667   -3.3639 O   0  0  0  0  0  0  0  0  0  0  0  0
   18.8932   72.4061   -3.3882 O   0  0  0  0  0  0  0  0  0  0  0  0
   20.9932   72.5188   -4.4774 O   0  0  0  0  0  0  0  0  0  0  0  0
   21.9049   70.2864   -1.1228 O   0  0  0  0  0  0  0  0  0  0  0  0
   19.4353   69.7933   -2.6035 O   0  0  0  0  0  0  0  0  0  0  0  0
   22.6922   73.0807   -1.2744 O   0  0  0  0  0  0  0  0  0  0  0  0
   21.2110   71.2791   -1.8786 C   0  0  2  0  0  0  0  0  0  0  0  0
   20.5005   70.6187   -3.0604 C   0  0  2  0  0  0  0  0  0  0  0  0
   22.2383   72.2979   -2.3769 C   0  0  1  0  0  0  0  0  0  0  0  0
   19.9399   71.6703   -4.0188 C   0  0  1  0  0  0  0  0  0  0  0  0
   21.6352   73.2315   -3.4225 C   0  0  1  0  0  0  0  0  0  0  0  0
   21.2720   69.6278   -0.7957 H   0  0  0  0  0  0  0  0  0  0  0  0
   19.7838   69.1238   -1.9947 H   0  0  0  0  0  0  0  0  0  0  0  0
   23.0782   72.4984   -0.6015 H   0  0  0  0  0  0  0  0  0  0  0  0
   23.2363   74.9427   -3.3257 O   0  0  0  0  0  0  0  0  0  0  0  0
   23.0616   73.7915   -5.2861 O   0  0  0  0  0  0  0  0  0  0  0  0
   22.7056   73.9926   -4.1346 C   0  0  0  0  0  0  0  0  0  0  0  0
  1  4  1  0
  1 24  1  0
  1  2  1  1
  1  3  2  0
 25 28  1  0
 25 24  1  0
 25 26  1  6
 25 27  2  0
  6 11  1  0
  6 12  1  0
 29 36  1  0
 29 37  1  0
  9  7  1  6
  7 13  1  0
 10  8  1  6
  8 14  1  0
  4  5  1  0
 36 28  1  1
 33 30  1  6
 30 38  1  0
 34 31  1  1
 31 39  1  0
 35 32  1  1
 32 40  1  0
 41 43  1  0
 15 19  2  0
 42 43  2  0
 16 22  2  0
 12 17  1  1
 17 19  1  0
 17 20  1  0
 18 19  1  0
 18 22  1  0
 18 23  1  0
  9 10  1  0
  9 11  1  0
 10 12  1  0
 11  5  1  1
 33 34  1  0
 33 35  1  0
 34 36  1  0
 35 37  1  0
 37 43  1  6
 20 21  2  0
 21 22  1  0
M  CHG  3   2  -1  26  -1  41  -1
M  END
>  <COMPND>  (32) 
    udp_gluA.pdb 

>  <AUTHOR>  (32) 
    GENERATED BY OPEN BABEL 3.1.1

>  <MASTER>  (32) 
        0    0    0    0    0    0    0    0   56    0   56    0

>  <minimizedAffinity>  (32) 
-6.67846

>  <CNNscore>  (32) 
0.4304394722

>  <CNNaffinity>  (32) 
4.0796027184

>  <CNN_VS>  (32) 
1.7560220957

>  <CNNaffinity_variance>  (32) 
0.5157489181

$$$$
33
     RDKit          3D

 43 45  0  0  0  0  0  0  0  0999 V2000
   15.6651   75.9153   -6.8759 P   0  0  2  0  0  0  0  0  0  0  0  0
   15.8344   76.4878   -8.3801 O   0  0  0  0  0  0  0  0  0  0  0  0
   15.5457   76.9635   -5.8088 O   0  0  0  0  0  0  0  0  0  0  0  0
   16.9001   74.8830   -6.7117 O   0  0  0  0  0  0  0  0  0  0  0  0
   18.2116   75.3519   -6.9662 C   0  0  0  0  0  0  0  0  0  0  0  0
   18.8059   73.1647   -6.1658 O   0  0  0  0  0  0  0  0  0  0  0  0
   21.5060   74.3221   -5.5647 O   0  0  0  0  0  0  0  0  0  0  0  0
   21.9370   72.9877   -7.9034 O   0  0  0  0  0  0  0  0  0  0  0  0
   20.6230   74.6049   -6.6504 C   0  0  1  0  0  0  0  0  0  0  0  0
   20.6326   73.4634   -7.6449 C   0  0  2  0  0  0  0  0  0  0  0  0
   19.1963   74.5542   -6.1209 C   0  0  1  0  0  0  0  0  0  0  0  0
   19.7611   72.4316   -6.9492 C   0  0  2  0  0  0  0  0  0  0  0  0
   22.4239   74.3487   -5.8786 H   0  0  0  0  0  0  0  0  0  0  0  0
   22.4518   73.6806   -8.3470 H   0  0  0  0  0  0  0  0  0  0  0  0
   18.9037   69.8000   -6.3874 O   0  0  0  0  0  0  0  0  0  0  0  0
   17.0715   69.3052  -10.5876 O   0  0  0  0  0  0  0  0  0  0  0  0
   19.0578   71.5926   -7.8777 N   0  0  0  0  0  0  0  0  0  0  0  0
   17.9929   69.5557   -8.4802 N   0  0  0  0  0  0  0  0  0  0  0  0
   18.6722   70.2858   -7.4961 C   0  0  0  0  0  0  0  0  0  0  0  0
   18.7558   72.0659   -9.1488 C   0  0  0  0  0  0  0  0  0  0  0  0
   18.1076   71.3582  -10.0761 C   0  0  0  0  0  0  0  0  0  0  0  0
   17.6703   69.9830   -9.7581 C   0  0  0  0  0  0  0  0  0  0  0  0
   17.7160   68.6423   -8.2385 H   0  0  0  0  0  0  0  0  0  0  0  0
   14.3863   74.9348   -7.0026 O   0  0  0  0  0  0  0  0  0  0  0  0
   14.2516   73.4375   -7.5975 P   0  0  2  0  0  0  0  0  0  0  0  0
   15.5886   73.2746   -8.4953 O   0  0  0  0  0  0  0  0  0  0  0  0
   12.9725   73.1832   -8.3412 O   0  0  0  0  0  0  0  0  0  0  0  0
   14.4923   72.4700   -6.3292 O   0  0  0  0  0  0  0  0  0  0  0  0
   16.2674   71.5462   -5.0625 O   0  0  0  0  0  0  0  0  0  0  0  0
   13.9890   68.1989   -5.8824 O   0  0  0  0  0  0  0  0  0  0  0  0
   14.4650   70.2087   -7.9485 O   0  0  0  0  0  0  0  0  0  0  0  0
   13.9235   69.3957   -3.2339 O   0  0  0  0  0  0  0  0  0  0  0  0
   14.2251   69.5816   -5.6171 C   0  0  2  0  0  0  0  0  0  0  0  0
   15.1397   70.1610   -6.6966 C   0  0  2  0  0  0  0  0  0  0  0  0
   14.8877   69.6929   -4.2422 C   0  0  1  0  0  0  0  0  0  0  0  0
   15.5999   71.5712   -6.3247 C   0  0  1  0  0  0  0  0  0  0  0  0
   15.4317   71.0975   -3.9979 C   0  0  1  0  0  0  0  0  0  0  0  0
   13.5683   68.1035   -6.7514 H   0  0  0  0  0  0  0  0  0  0  0  0
   14.1700   69.3173   -8.1905 H   0  0  0  0  0  0  0  0  0  0  0  0
   13.5693   68.5042   -3.3780 H   0  0  0  0  0  0  0  0  0  0  0  0
   16.8601   69.8767   -2.5942 O   0  0  0  0  0  0  0  0  0  0  0  0
   16.6151   72.0996   -2.1495 O   0  0  0  0  0  0  0  0  0  0  0  0
   16.3510   71.1130   -2.8203 C   0  0  0  0  0  0  0  0  0  0  0  0
  1  4  1  0
  1 24  1  0
  1  2  1  6
  1  3  2  0
 25 28  1  0
 25 24  1  0
 25 26  1  6
 25 27  2  0
  6 11  1  0
  6 12  1  0
 29 36  1  0
 29 37  1  0
  9  7  1  1
  7 13  1  0
 10  8  1  1
  8 14  1  0
  4  5  1  0
 36 28  1  1
 33 30  1  6
 30 38  1  0
 34 31  1  6
 31 39  1  0
 35 32  1  1
 32 40  1  0
 41 43  1  0
 15 19  2  0
 42 43  2  0
 16 22  2  0
 12 17  1  6
 17 19  1  0
 17 20  1  0
 18 19  1  0
 18 22  1  0
 18 23  1  0
  9 10  1  0
  9 11  1  0
 10 12  1  0
 11  5  1  6
 33 34  1  0
 33 35  1  0
 34 36  1  0
 35 37  1  0
 37 43  1  1
 20 21  2  0
 21 22  1  0
M  CHG  3   2  -1  26  -1  41  -1
M  END
>  <COMPND>  (33) 
    udp_gluA.pdb 

>  <AUTHOR>  (33) 
    GENERATED BY OPEN BABEL 3.1.1

>  <MASTER>  (33) 
        0    0    0    0    0    0    0    0   56    0   56    0

>  <minimizedAffinity>  (33) 
-6.53706

>  <CNNscore>  (33) 
0.4224050045

>  <CNNaffinity>  (33) 
3.9706223011

>  <CNN_VS>  (33) 
1.6772106886

>  <CNNaffinity_variance>  (33) 
1.1746199131

$$$$
34
     RDKit          3D

 43 45  0  0  0  0  0  0  0  0999 V2000
   17.2330   75.6466   -4.4549 P   0  0  2  0  0  0  0  0  0  0  0  0
   15.6282   75.7904   -4.3039 O   0  0  0  0  0  0  0  0  0  0  0  0
   18.0163   76.8728   -4.0882 O   0  0  0  0  0  0  0  0  0  0  0  0
   17.4344   75.1107   -5.9683 O   0  0  0  0  0  0  0  0  0  0  0  0
   18.6752   75.3444   -6.6088 C   0  0  0  0  0  0  0  0  0  0  0  0
   19.3324   73.1126   -6.0046 O   0  0  0  0  0  0  0  0  0  0  0  0
   22.1050   74.2122   -5.6964 O   0  0  0  0  0  0  0  0  0  0  0  0
   22.2127   72.9995   -8.1365 O   0  0  0  0  0  0  0  0  0  0  0  0
   21.0951   74.5600   -6.6439 C   0  0  1  0  0  0  0  0  0  0  0  0
   20.9596   73.4726   -7.6886 C   0  0  2  0  0  0  0  0  0  0  0  0
   19.7471   74.4943   -5.9390 C   0  0  1  0  0  0  0  0  0  0  0  0
   20.1680   72.4135   -6.9406 C   0  0  2  0  0  0  0  0  0  0  0  0
   22.9755   74.2471   -6.1238 H   0  0  0  0  0  0  0  0  0  0  0  0
   22.6775   73.7103   -8.6064 H   0  0  0  0  0  0  0  0  0  0  0  0
   18.8590   70.0287   -6.1820 O   0  0  0  0  0  0  0  0  0  0  0  0
   17.0120   69.4947  -10.3710 O   0  0  0  0  0  0  0  0  0  0  0  0
   19.3388   71.6311   -7.8131 N   0  0  0  0  0  0  0  0  0  0  0  0
   17.9411   69.7644   -8.2694 N   0  0  0  0  0  0  0  0  0  0  0  0
   18.7272   70.4489   -7.3331 C   0  0  0  0  0  0  0  0  0  0  0  0
   19.1371   72.0371   -9.1266 C   0  0  0  0  0  0  0  0  0  0  0  0
   18.3849   71.3742  -10.0074 C   0  0  0  0  0  0  0  0  0  0  0  0
   17.7112   70.1284   -9.5863 C   0  0  0  0  0  0  0  0  0  0  0  0
   17.5067   68.9373   -7.9590 H   0  0  0  0  0  0  0  0  0  0  0  0
   17.5662   74.3422   -3.5602 O   0  0  0  0  0  0  0  0  0  0  0  0
   17.6223   74.1408   -1.9571 P   0  0  2  0  0  0  0  0  0  0  0  0
   16.7694   72.7847   -1.7247 O   0  0  0  0  0  0  0  0  0  0  0  0
   17.1323   75.3220   -1.1706 O   0  0  0  0  0  0  0  0  0  0  0  0
   19.1490   73.7192   -1.6508 O   0  0  0  0  0  0  0  0  0  0  0  0
   21.1626   74.2175   -2.7938 O   0  0  0  0  0  0  0  0  0  0  0  0
   21.9120   70.4032   -1.3946 O   0  0  0  0  0  0  0  0  0  0  0  0
   19.3029   71.0816   -2.5202 O   0  0  0  0  0  0  0  0  0  0  0  0
   23.1380   72.6994   -0.1002 O   0  0  0  0  0  0  0  0  0  0  0  0
   21.3433   71.7124   -1.3690 C   0  0  2  0  0  0  0  0  0  0  0  0
   20.4574   71.9096   -2.5993 C   0  0  2  0  0  0  0  0  0  0  0  0
   22.4897   72.7261   -1.3704 C   0  0  1  0  0  0  0  0  0  0  0  0
   20.0162   73.3683   -2.7276 C   0  0  1  0  0  0  0  0  0  0  0  0
   21.9814   74.1415   -1.6290 C   0  0  1  0  0  0  0  0  0  0  0  0
   21.2020   69.7420   -1.3942 H   0  0  0  0  0  0  0  0  0  0  0  0
   19.5754   70.1546   -2.4383 H   0  0  0  0  0  0  0  0  0  0  0  0
   23.4661   71.8039    0.0766 H   0  0  0  0  0  0  0  0  0  0  0  0
   22.9866   75.5496   -3.2127 O   0  0  0  0  0  0  0  0  0  0  0  0
   24.0300   75.3403   -1.1961 O   0  0  0  0  0  0  0  0  0  0  0  0
   23.1135   75.0605   -1.9543 C   0  0  0  0  0  0  0  0  0  0  0  0
  1  4  1  0
  1 24  1  0
  1  2  1  6
  1  3  2  0
 25 28  1  0
 25 24  1  0
 25 26  1  6
 25 27  2  0
  6 11  1  0
  6 12  1  0
 29 36  1  0
 29 37  1  0
  9  7  1  1
  7 13  1  0
 10  8  1  1
  8 14  1  0
  4  5  1  0
 36 28  1  1
 33 30  1  6
 30 38  1  0
 34 31  1  1
 31 39  1  0
 35 32  1  1
 32 40  1  0
 41 43  1  0
 15 19  2  0
 42 43  2  0
 16 22  2  0
 12 17  1  6
 17 19  1  0
 17 20  1  0
 18 19  1  0
 18 22  1  0
 18 23  1  0
  9 10  1  0
  9 11  1  0
 10 12  1  0
 11  5  1  6
 33 34  1  0
 33 35  1  0
 34 36  1  0
 35 37  1  0
 37 43  1  6
 20 21  2  0
 21 22  1  0
M  CHG  3   2  -1  26  -1  41  -1
M  END
>  <COMPND>  (34) 
    udp_gluA.pdb 

>  <AUTHOR>  (34) 
    GENERATED BY OPEN BABEL 3.1.1

>  <MASTER>  (34) 
        0    0    0    0    0    0    0    0   56    0   56    0

>  <minimizedAffinity>  (34) 
-6.38966

>  <CNNscore>  (34) 
0.4208925962

>  <CNNaffinity>  (34) 
3.8756909370

>  <CNN_VS>  (34) 
1.6312496662

>  <CNNaffinity_variance>  (34) 
0.7819737196

$$$$
35
     RDKit          3D

 43 45  0  0  0  0  0  0  0  0999 V2000
   19.8730   76.4475   -7.4817 P   0  0  2  0  0  0  0  0  0  0  0  0
   19.3506   77.3377   -6.2353 O   0  0  0  0  0  0  0  0  0  0  0  0
   20.9922   77.0594   -8.2722 O   0  0  0  0  0  0  0  0  0  0  0  0
   18.5255   76.1147   -8.3132 O   0  0  0  0  0  0  0  0  0  0  0  0
   17.7136   75.0379   -7.8821 C   0  0  0  0  0  0  0  0  0  0  0  0
   18.3967   72.7509   -8.1661 O   0  0  0  0  0  0  0  0  0  0  0  0
   16.7740   72.7741  -10.6875 O   0  0  0  0  0  0  0  0  0  0  0  0
   15.1271   71.4944   -8.9307 O   0  0  0  0  0  0  0  0  0  0  0  0
   16.5173   73.4227   -9.4417 C   0  0  1  0  0  0  0  0  0  0  0  0
   16.0643   72.4129   -8.4086 C   0  0  2  0  0  0  0  0  0  0  0  0
   17.8501   73.8869   -8.8704 C   0  0  1  0  0  0  0  0  0  0  0  0
   17.3751   71.7522   -8.0174 C   0  0  2  0  0  0  0  0  0  0  0  0
   15.9369   72.4687  -11.0719 H   0  0  0  0  0  0  0  0  0  0  0  0
   14.3102   71.9636   -9.1643 H   0  0  0  0  0  0  0  0  0  0  0  0
   18.9086   69.5777   -7.0707 O   0  0  0  0  0  0  0  0  0  0  0  0
   17.2787   70.0574   -2.7862 O   0  0  0  0  0  0  0  0  0  0  0  0
   17.3706   71.2875   -6.6591 N   0  0  0  0  0  0  0  0  0  0  0  0
   18.0946   69.8180   -4.9379 N   0  0  0  0  0  0  0  0  0  0  0  0
   18.1776   70.1864   -6.2871 C   0  0  0  0  0  0  0  0  0  0  0  0
   16.5750   71.9208   -5.7121 C   0  0  0  0  0  0  0  0  0  0  0  0
   16.5064   71.5582   -4.4296 C   0  0  0  0  0  0  0  0  0  0  0  0
   17.3178   70.4165   -3.9591 C   0  0  0  0  0  0  0  0  0  0  0  0
   18.6459   69.0527   -4.6556 H   0  0  0  0  0  0  0  0  0  0  0  0
   20.2327   75.0312   -6.7906 O   0  0  0  0  0  0  0  0  0  0  0  0
   21.6445   74.4220   -6.2911 P   0  0  2  0  0  0  0  0  0  0  0  0
   22.5523   75.7407   -6.0516 O   0  0  0  0  0  0  0  0  0  0  0  0
   22.2483   73.4177   -7.2296 O   0  0  0  0  0  0  0  0  0  0  0  0
   21.3458   73.8587   -4.8093 O   0  0  0  0  0  0  0  0  0  0  0  0
   20.3588   71.8443   -4.0495 O   0  0  0  0  0  0  0  0  0  0  0  0
   19.0173   74.5525   -1.2327 O   0  0  0  0  0  0  0  0  0  0  0  0
   19.0629   75.2629   -4.0660 O   0  0  0  0  0  0  0  0  0  0  0  0
   21.1542   72.6962   -0.5704 O   0  0  0  0  0  0  0  0  0  0  0  0
   19.9322   74.0053   -2.1822 C   0  0  2  0  0  0  0  0  0  0  0  0
   19.2689   73.9496   -3.5586 C   0  0  2  0  0  0  0  0  0  0  0  0
   20.3112   72.5976   -1.7167 C   0  0  1  0  0  0  0  0  0  0  0  0
   20.1285   73.1623   -4.5487 C   0  0  1  0  0  0  0  0  0  0  0  0
   21.0569   71.8325   -2.8062 C   0  0  1  0  0  0  0  0  0  0  0  0
   18.7622   75.4472   -1.5078 H   0  0  0  0  0  0  0  0  0  0  0  0
   18.5184   75.7682   -3.4427 H   0  0  0  0  0  0  0  0  0  0  0  0
   20.6914   73.1813    0.1306 H   0  0  0  0  0  0  0  0  0  0  0  0
   21.8626   70.1772   -1.3528 O   0  0  0  0  0  0  0  0  0  0  0  0
   20.6048   69.4838   -3.1237 O   0  0  0  0  0  0  0  0  0  0  0  0
   21.1306   70.3770   -2.4767 C   0  0  0  0  0  0  0  0  0  0  0  0
  1  4  1  0
  1 24  1  0
  1  2  1  1
  1  3  2  0
 25 28  1  0
 25 24  1  0
 25 26  1  1
 25 27  2  0
  6 11  1  0
  6 12  1  0
 29 36  1  0
 29 37  1  0
  9  7  1  6
  7 13  1  0
 10  8  1  6
  8 14  1  0
  4  5  1  0
 36 28  1  1
 33 30  1  1
 30 38  1  0
 34 31  1  6
 31 39  1  0
 35 32  1  1
 32 40  1  0
 41 43  1  0
 15 19  2  0
 42 43  2  0
 16 22  2  0
 12 17  1  1
 17 19  1  0
 17 20  1  0
 18 19  1  0
 18 22  1  0
 18 23  1  0
  9 10  1  0
  9 11  1  0
 10 12  1  0
 11  5  1  1
 33 34  1  0
 33 35  1  0
 34 36  1  0
 35 37  1  0
 37 43  1  1
 20 21  2  0
 21 22  1  0
M  CHG  3   2  -1  26  -1  41  -1
M  END
>  <COMPND>  (35) 
    udp_gluA.pdb 

>  <AUTHOR>  (35) 
    GENERATED BY OPEN BABEL 3.1.1

>  <MASTER>  (35) 
        0    0    0    0    0    0    0    0   56    0   56    0

>  <minimizedAffinity>  (35) 
-7.12135

>  <CNNscore>  (35) 
0.3991068304

>  <CNNaffinity>  (35) 
3.8967430592

>  <CNN_VS>  (35) 
1.5552167892

>  <CNNaffinity_variance>  (35) 
0.7616258264

$$$$
36
     RDKit          3D

 43 45  0  0  0  0  0  0  0  0999 V2000
   19.6666   73.9755   -5.7329 P   0  0  2  0  0  0  0  0  0  0  0  0
   19.1769   72.9652   -6.8985 O   0  0  0  0  0  0  0  0  0  0  0  0
   21.1527   74.1606   -5.6380 O   0  0  0  0  0  0  0  0  0  0  0  0
   18.9422   73.4117   -4.4005 O   0  0  0  0  0  0  0  0  0  0  0  0
   18.8712   72.0105   -4.2110 C   0  0  0  0  0  0  0  0  0  0  0  0
   16.7062   71.6486   -5.1906 O   0  0  0  0  0  0  0  0  0  0  0  0
   16.0372   70.1266   -2.6951 O   0  0  0  0  0  0  0  0  0  0  0  0
   16.5759   68.1368   -4.4802 O   0  0  0  0  0  0  0  0  0  0  0  0
   17.2747   70.2018   -3.4033 C   0  0  1  0  0  0  0  0  0  0  0  0
   17.1993   69.3885   -4.6781 C   0  0  2  0  0  0  0  0  0  0  0  0
   17.4244   71.6194   -3.9382 C   0  0  1  0  0  0  0  0  0  0  0  0
   16.3981   70.3033   -5.5888 C   0  0  2  0  0  0  0  0  0  0  0  0
   15.9193   69.2297   -2.3439 H   0  0  0  0  0  0  0  0  0  0  0  0
   17.1246   67.5914   -3.8942 H   0  0  0  0  0  0  0  0  0  0  0  0
   14.6021   70.6865   -7.7345 O   0  0  0  0  0  0  0  0  0  0  0  0
   17.8232   69.6328  -10.8583 O   0  0  0  0  0  0  0  0  0  0  0  0
   16.7410   70.1359   -6.9728 N   0  0  0  0  0  0  0  0  0  0  0  0
   16.2078   70.1603   -9.2882 N   0  0  0  0  0  0  0  0  0  0  0  0
   15.7643   70.3529   -7.9732 C   0  0  0  0  0  0  0  0  0  0  0  0
   18.0318   69.7627   -7.3273 C   0  0  0  0  0  0  0  0  0  0  0  0
   18.4398   69.5832   -8.5851 C   0  0  0  0  0  0  0  0  0  0  0  0
   17.4807   69.7889   -9.6901 C   0  0  0  0  0  0  0  0  0  0  0  0
   15.5450   70.3036  -10.0020 H   0  0  0  0  0  0  0  0  0  0  0  0
   18.8388   75.3266   -6.0525 O   0  0  0  0  0  0  0  0  0  0  0  0
   17.2538   75.5798   -6.2456 P   0  0  2  0  0  0  0  0  0  0  0  0
   17.1294   77.1932   -6.2061 O   0  0  0  0  0  0  0  0  0  0  0  0
   16.3901   74.8682   -5.2447 O   0  0  0  0  0  0  0  0  0  0  0  0
   16.9607   75.1863   -7.7824 O   0  0  0  0  0  0  0  0  0  0  0  0
   14.7326   74.4443   -8.0891 O   0  0  0  0  0  0  0  0  0  0  0  0
   16.3670   73.7627  -11.8217 O   0  0  0  0  0  0  0  0  0  0  0  0
   17.8766   73.1209   -9.4044 O   0  0  0  0  0  0  0  0  0  0  0  0
   14.5962   76.0285  -11.3957 O   0  0  0  0  0  0  0  0  0  0  0  0
   16.2054   74.4353  -10.5729 C   0  0  2  0  0  0  0  0  0  0  0  0
   16.4962   73.4650   -9.4277 C   0  0  2  0  0  0  0  0  0  0  0  0
   14.7627   74.9391  -10.4903 C   0  0  1  0  0  0  0  0  0  0  0  0
   16.1130   74.0784   -8.0802 C   0  0  1  0  0  0  0  0  0  0  0  0
   14.4196   75.4180   -9.0826 C   0  0  1  0  0  0  0  0  0  0  0  0
   17.2766   73.4336  -11.8966 H   0  0  0  0  0  0  0  0  0  0  0  0
   18.1267   72.7313  -10.2565 H   0  0  0  0  0  0  0  0  0  0  0  0
   14.8117   75.7370  -12.2954 H   0  0  0  0  0  0  0  0  0  0  0  0
   12.5538   76.8036   -9.3992 O   0  0  0  0  0  0  0  0  0  0  0  0
   12.1861   74.7659   -8.4444 O   0  0  0  0  0  0  0  0  0  0  0  0
   12.9441   75.5938   -8.9270 C   0  0  0  0  0  0  0  0  0  0  0  0
  1  4  1  0
  1 24  1  0
  1  2  1  6
  1  3  2  0
 25 28  1  0
 25 24  1  0
 25 26  1  6
 25 27  2  0
  6 11  1  0
  6 12  1  0
 29 36  1  0
 29 37  1  0
  9  7  1  6
  7 13  1  0
 10  8  1  1
  8 14  1  0
  4  5  1  0
 36 28  1  6
 33 30  1  6
 30 38  1  0
 34 31  1  1
 31 39  1  0
 35 32  1  6
 32 40  1  0
 41 43  1  0
 15 19  2  0
 42 43  2  0
 16 22  2  0
 12 17  1  6
 17 19  1  0
 17 20  1  0
 18 19  1  0
 18 22  1  0
 18 23  1  0
  9 10  1  0
  9 11  1  0
 10 12  1  0
 11  5  1  6
 33 34  1  0
 33 35  1  0
 34 36  1  0
 35 37  1  0
 37 43  1  6
 20 21  2  0
 21 22  1  0
M  CHG  3   2  -1  26  -1  41  -1
M  END
>  <COMPND>  (36) 
    udp_gluA.pdb 

>  <AUTHOR>  (36) 
    GENERATED BY OPEN BABEL 3.1.1

>  <MASTER>  (36) 
        0    0    0    0    0    0    0    0   56    0   56    0

>  <minimizedAffinity>  (36) 
-6.20203

>  <CNNscore>  (36) 
0.3835749030

>  <CNNaffinity>  (36) 
4.0536346436

>  <CNN_VS>  (36) 
1.5548725128

>  <CNNaffinity_variance>  (36) 
0.5133814216

$$$$
37
     RDKit          3D

 43 45  0  0  0  0  0  0  0  0999 V2000
   20.9599   71.5044   -2.0954 P   0  0  2  0  0  0  0  0  0  0  0  0
   22.0544   70.6969   -1.2184 O   0  0  0  0  0  0  0  0  0  0  0  0
   20.1828   72.5419   -1.3394 O   0  0  0  0  0  0  0  0  0  0  0  0
   20.0816   70.3371   -2.7909 O   0  0  0  0  0  0  0  0  0  0  0  0
   19.4571   70.6093   -4.0321 C   0  0  0  0  0  0  0  0  0  0  0  0
   17.4016   71.3493   -5.0344 O   0  0  0  0  0  0  0  0  0  0  0  0
   16.0211   70.0873   -2.6906 O   0  0  0  0  0  0  0  0  0  0  0  0
   15.6769   68.2289   -4.6562 O   0  0  0  0  0  0  0  0  0  0  0  0
   17.1870   69.6554   -3.3926 C   0  0  1  0  0  0  0  0  0  0  0  0
   16.8041   69.0758   -4.7378 C   0  0  2  0  0  0  0  0  0  0  0  0
   17.9797   70.8923   -3.7925 C   0  0  1  0  0  0  0  0  0  0  0  0
   16.5371   70.3276   -5.5561 C   0  0  2  0  0  0  0  0  0  0  0  0
   15.4984   69.3142   -2.4247 H   0  0  0  0  0  0  0  0  0  0  0  0
   15.8979   67.4468   -4.1257 H   0  0  0  0  0  0  0  0  0  0  0  0
   14.9121   71.2861   -7.6578 O   0  0  0  0  0  0  0  0  0  0  0  0
   17.7295   69.5563  -10.8694 O   0  0  0  0  0  0  0  0  0  0  0  0
   16.8224   70.1418   -6.9507 N   0  0  0  0  0  0  0  0  0  0  0  0
   16.3164   70.4227   -9.2553 N   0  0  0  0  0  0  0  0  0  0  0  0
   15.9409   70.6632   -7.9271 C   0  0  0  0  0  0  0  0  0  0  0  0
   17.9644   69.4520   -7.3391 C   0  0  0  0  0  0  0  0  0  0  0  0
   18.3091   69.2308   -8.6092 C   0  0  0  0  0  0  0  0  0  0  0  0
   17.4416   69.7417   -9.6908 C   0  0  0  0  0  0  0  0  0  0  0  0
   15.7172   70.7744   -9.9529 H   0  0  0  0  0  0  0  0  0  0  0  0
   21.8352   72.0823   -3.3253 O   0  0  0  0  0  0  0  0  0  0  0  0
   21.9319   73.5691   -3.9528 P   0  0  2  0  0  0  0  0  0  0  0  0
   23.1362   73.4397   -5.0267 O   0  0  0  0  0  0  0  0  0  0  0  0
   22.1250   74.6557   -2.9350 O   0  0  0  0  0  0  0  0  0  0  0  0
   20.6004   73.7218   -4.8507 O   0  0  0  0  0  0  0  0  0  0  0  0
   20.2780   74.0978   -7.1667 O   0  0  0  0  0  0  0  0  0  0  0  0
   17.1519   76.2417   -5.5238 O   0  0  0  0  0  0  0  0  0  0  0  0
   19.8084   76.3330   -4.3119 O   0  0  0  0  0  0  0  0  0  0  0  0
   16.6527   73.6740   -6.7923 O   0  0  0  0  0  0  0  0  0  0  0  0
   18.1065   75.1832   -5.6031 C   0  0  2  0  0  0  0  0  0  0  0  0
   19.5197   75.7661   -5.5847 C   0  0  2  0  0  0  0  0  0  0  0  0
   17.8615   74.4222   -6.9081 C   0  0  1  0  0  0  0  0  0  0  0  0
   20.5597   74.6895   -5.8979 C   0  0  1  0  0  0  0  0  0  0  0  0
   19.0044   73.4584   -7.2139 C   0  0  1  0  0  0  0  0  0  0  0  0
   17.2882   76.7394   -4.7023 H   0  0  0  0  0  0  0  0  0  0  0  0
   19.1522   77.0168   -4.1066 H   0  0  0  0  0  0  0  0  0  0  0  0
   15.9174   74.2758   -6.5976 H   0  0  0  0  0  0  0  0  0  0  0  0
   20.0652   72.3257   -8.9726 O   0  0  0  0  0  0  0  0  0  0  0  0
   17.9681   73.1288   -9.3677 O   0  0  0  0  0  0  0  0  0  0  0  0
   18.9251   72.9721   -8.6244 C   0  0  0  0  0  0  0  0  0  0  0  0
  1  4  1  0
  1 24  1  0
  1  2  1  1
  1  3  2  0
 25 28  1  0
 25 24  1  0
 25 26  1  6
 25 27  2  0
  6 11  1  0
  6 12  1  0
 29 36  1  0
 29 37  1  0
  9  7  1  1
  7 13  1  0
 10  8  1  1
  8 14  1  0
  4  5  1  0
 36 28  1  1
 33 30  1  6
 30 38  1  0
 34 31  1  1
 31 39  1  0
 35 32  1  1
 32 40  1  0
 41 43  1  0
 15 19  2  0
 42 43  2  0
 16 22  2  0
 12 17  1  6
 17 19  1  0
 17 20  1  0
 18 19  1  0
 18 22  1  0
 18 23  1  0
  9 10  1  0
  9 11  1  0
 10 12  1  0
 11  5  1  6
 33 34  1  0
 33 35  1  0
 34 36  1  0
 35 37  1  0
 37 43  1  6
 20 21  2  0
 21 22  1  0
M  CHG  3   2  -1  26  -1  41  -1
M  END
>  <COMPND>  (37) 
    udp_gluA.pdb 

>  <AUTHOR>  (37) 
    GENERATED BY OPEN BABEL 3.1.1

>  <MASTER>  (37) 
        0    0    0    0    0    0    0    0   56    0   56    0

>  <minimizedAffinity>  (37) 
-7.27650

>  <CNNscore>  (37) 
0.3828211427

>  <CNNaffinity>  (37) 
3.9290738106

>  <CNN_VS>  (37) 
1.5041325092

>  <CNNaffinity_variance>  (37) 
0.8966038823

$$$$
38
     RDKit          3D

 43 45  0  0  0  0  0  0  0  0999 V2000
   21.1902   73.5799   -5.7440 P   0  0  2  0  0  0  0  0  0  0  0  0
   22.3439   73.5361   -6.8781 O   0  0  0  0  0  0  0  0  0  0  0  0
   20.4942   74.9013   -5.5989 O   0  0  0  0  0  0  0  0  0  0  0  0
   21.9298   73.0258   -4.4159 O   0  0  0  0  0  0  0  0  0  0  0  0
   21.7722   73.7428   -3.2053 C   0  0  0  0  0  0  0  0  0  0  0  0
   20.1202   72.8242   -1.7204 O   0  0  0  0  0  0  0  0  0  0  0  0
   22.0444   70.5679   -1.2754 O   0  0  0  0  0  0  0  0  0  0  0  0
   20.2654   69.4944   -3.0414 O   0  0  0  0  0  0  0  0  0  0  0  0
   21.7797   71.3081   -2.4673 C   0  0  1  0  0  0  0  0  0  0  0  0
   20.4474   70.8948   -3.0559 C   0  0  2  0  0  0  0  0  0  0  0  0
   21.5187   72.7554   -2.0733 C   0  0  1  0  0  0  0  0  0  0  0  0
   19.4649   71.6216   -2.1536 C   0  0  2  0  0  0  0  0  0  0  0  0
   22.2142   69.6397   -1.5018 H   0  0  0  0  0  0  0  0  0  0  0  0
   20.9140   69.0779   -3.6311 H   0  0  0  0  0  0  0  0  0  0  0  0
   17.1855   69.9607   -2.3027 O   0  0  0  0  0  0  0  0  0  0  0  0
   14.8612   73.0649   -4.7937 O   0  0  0  0  0  0  0  0  0  0  0  0
   18.2505   71.9710   -2.8347 N   0  0  0  0  0  0  0  0  0  0  0  0
   16.0304   71.5079   -3.5441 N   0  0  0  0  0  0  0  0  0  0  0  0
   17.1640   71.0646   -2.8501 C   0  0  0  0  0  0  0  0  0  0  0  0
   18.1436   73.1991   -3.4761 C   0  0  0  0  0  0  0  0  0  0  0  0
   17.0565   73.6076   -4.1334 C   0  0  0  0  0  0  0  0  0  0  0  0
   15.8771   72.7197   -4.1979 C   0  0  0  0  0  0  0  0  0  0  0  0
   15.2618   70.8932   -3.5703 H   0  0  0  0  0  0  0  0  0  0  0  0
   20.2246   72.3525   -6.1611 O   0  0  0  0  0  0  0  0  0  0  0  0
   19.2775   72.1390   -7.4537 P   0  0  2  0  0  0  0  0  0  0  0  0
   20.1189   71.0948   -8.3604 O   0  0  0  0  0  0  0  0  0  0  0  0
   18.9040   73.4100   -8.1601 O   0  0  0  0  0  0  0  0  0  0  0  0
   18.0238   71.2842   -6.9059 O   0  0  0  0  0  0  0  0  0  0  0  0
   17.1456   69.0980   -6.6644 O   0  0  0  0  0  0  0  0  0  0  0  0
   14.2568   70.9117   -8.9953 O   0  0  0  0  0  0  0  0  0  0  0  0
   17.0923   71.3740   -9.5251 O   0  0  0  0  0  0  0  0  0  0  0  0
   13.7687   70.4443   -6.1679 O   0  0  0  0  0  0  0  0  0  0  0  0
   15.2791   70.8497   -8.0008 C   0  0  2  0  0  0  0  0  0  0  0  0
   16.5868   70.3815   -8.6396 C   0  0  2  0  0  0  0  0  0  0  0  0
   14.8300   69.8616   -6.9220 C   0  0  1  0  0  0  0  0  0  0  0  0
   17.6407   70.0827   -7.5725 C   0  0  1  0  0  0  0  0  0  0  0  0
   15.9727   69.5180   -5.9708 C   0  0  1  0  0  0  0  0  0  0  0  0
   14.5202   71.5338   -9.6917 H   0  0  0  0  0  0  0  0  0  0  0  0
   16.4285   71.5687  -10.2047 H   0  0  0  0  0  0  0  0  0  0  0  0
   13.0350   70.6678   -6.7617 H   0  0  0  0  0  0  0  0  0  0  0  0
   14.7525   68.6604   -4.1605 O   0  0  0  0  0  0  0  0  0  0  0  0
   16.0723   67.1995   -5.3106 O   0  0  0  0  0  0  0  0  0  0  0  0
   15.6298   68.3254   -5.1387 C   0  0  0  0  0  0  0  0  0  0  0  0
  1  4  1  0
  1 24  1  0
  1  2  1  6
  1  3  2  0
 25 28  1  0
 25 24  1  0
 25 26  1  6
 25 27  2  0
  6 11  1  0
  6 12  1  0
 29 36  1  0
 29 37  1  0
  9  7  1  1
  7 13  1  0
 10  8  1  1
  8 14  1  0
  4  5  1  0
 36 28  1  1
 33 30  1  6
 30 38  1  0
 34 31  1  6
 31 39  1  0
 35 32  1  1
 32 40  1  0
 41 43  1  0
 15 19  2  0
 42 43  2  0
 16 22  2  0
 12 17  1  6
 17 19  1  0
 17 20  1  0
 18 19  1  0
 18 22  1  0
 18 23  1  0
  9 10  1  0
  9 11  1  0
 10 12  1  0
 11  5  1  6
 33 34  1  0
 33 35  1  0
 34 36  1  0
 35 37  1  0
 37 43  1  1
 20 21  2  0
 21 22  1  0
M  CHG  3   2  -1  26  -1  41  -1
M  END
>  <COMPND>  (38) 
    udp_gluA.pdb 

>  <AUTHOR>  (38) 
    GENERATED BY OPEN BABEL 3.1.1

>  <MASTER>  (38) 
        0    0    0    0    0    0    0    0   56    0   56    0

>  <minimizedAffinity>  (38) 
-7.90778

>  <CNNscore>  (38) 
0.3791688383

>  <CNNaffinity>  (38) 
3.9950642586

>  <CNN_VS>  (38) 
1.5148038864

>  <CNNaffinity_variance>  (38) 
0.6851630807

$$$$
39
     RDKit          3D

 43 45  0  0  0  0  0  0  0  0999 V2000
   21.9872   73.4762   -3.8148 P   0  0  2  0  0  0  0  0  0  0  0  0
   21.2827   74.9329   -3.8375 O   0  0  0  0  0  0  0  0  0  0  0  0
   23.0150   73.2528   -4.8850 O   0  0  0  0  0  0  0  0  0  0  0  0
   20.7423   72.4427   -3.8093 O   0  0  0  0  0  0  0  0  0  0  0  0
   19.8247   72.4838   -4.8867 C   0  0  0  0  0  0  0  0  0  0  0  0
   17.5060   72.2292   -5.4668 O   0  0  0  0  0  0  0  0  0  0  0  0
   17.1338   71.0983   -2.7147 O   0  0  0  0  0  0  0  0  0  0  0  0
   17.2074   68.8617   -4.2730 O   0  0  0  0  0  0  0  0  0  0  0  0
   18.2401   70.9597   -3.6066 C   0  0  1  0  0  0  0  0  0  0  0  0
   17.8900   70.0096   -4.7322 C   0  0  2  0  0  0  0  0  0  0  0  0
   18.4154   72.2790   -4.3461 C   0  0  1  0  0  0  0  0  0  0  0  0
   17.0277   70.8842   -5.6264 C   0  0  2  0  0  0  0  0  0  0  0  0
   17.0022   70.2676   -2.2307 H   0  0  0  0  0  0  0  0  0  0  0  0
   17.7984   68.3383   -3.7085 H   0  0  0  0  0  0  0  0  0  0  0  0
   14.8806   70.9913   -7.4580 O   0  0  0  0  0  0  0  0  0  0  0  0
   17.5114   69.4458  -10.9127 O   0  0  0  0  0  0  0  0  0  0  0  0
   17.1238   70.5156   -7.0105 N   0  0  0  0  0  0  0  0  0  0  0  0
   16.1927   70.2205   -9.1767 N   0  0  0  0  0  0  0  0  0  0  0  0
   15.9852   70.6059   -7.8457 C   0  0  0  0  0  0  0  0  0  0  0  0
   18.3350   70.0724   -7.5278 C   0  0  0  0  0  0  0  0  0  0  0  0
   18.5174   69.7086   -8.7987 C   0  0  0  0  0  0  0  0  0  0  0  0
   17.3779   69.7726   -9.7372 C   0  0  0  0  0  0  0  0  0  0  0  0
   15.4140   70.2729   -9.7768 H   0  0  0  0  0  0  0  0  0  0  0  0
   22.5537   73.3707   -2.3045 O   0  0  0  0  0  0  0  0  0  0  0  0
   21.8234   72.9543   -0.9236 P   0  0  2  0  0  0  0  0  0  0  0  0
   22.0434   71.3520   -0.8573 O   0  0  0  0  0  0  0  0  0  0  0  0
   20.3884   73.3858   -0.8315 O   0  0  0  0  0  0  0  0  0  0  0  0
   22.7758   73.5444    0.2371 O   0  0  0  0  0  0  0  0  0  0  0  0
   22.3616   74.9211    2.1192 O   0  0  0  0  0  0  0  0  0  0  0  0
   26.0652   76.2744    0.8866 O   0  0  0  0  0  0  0  0  0  0  0  0
   23.9774   75.6853   -1.0700 O   0  0  0  0  0  0  0  0  0  0  0  0
   25.8417   74.5608    3.2243 O   0  0  0  0  0  0  0  0  0  0  0  0
   25.0288   75.3128    1.0845 C   0  0  2  0  0  0  0  0  0  0  0  0
   23.7710   75.7548    0.3361 C   0  0  2  0  0  0  0  0  0  0  0  0
   24.7498   75.2205    2.5863 C   0  0  1  0  0  0  0  0  0  0  0  0
   22.5759   74.8760    0.7080 C   0  0  1  0  0  0  0  0  0  0  0  0
   23.4728   74.4342    2.8684 C   0  0  1  0  0  0  0  0  0  0  0  0
   26.2597   76.3502   -0.0609 H   0  0  0  0  0  0  0  0  0  0  0  0
   24.7345   76.2405   -1.3131 H   0  0  0  0  0  0  0  0  0  0  0  0
   26.6608   75.0512    3.0524 H   0  0  0  0  0  0  0  0  0  0  0  0
   21.7322   75.0047    4.3334 O   0  0  0  0  0  0  0  0  0  0  0  0
   23.7414   74.4638    5.2660 O   0  0  0  0  0  0  0  0  0  0  0  0
   23.0333   74.6260    4.2834 C   0  0  0  0  0  0  0  0  0  0  0  0
  1  4  1  0
  1 24  1  0
  1  2  1  6
  1  3  2  0
 25 28  1  0
 25 24  1  0
 25 26  1  1
 25 27  2  0
  6 11  1  0
  6 12  1  0
 29 36  1  0
 29 37  1  0
  9  7  1  1
  7 13  1  0
 10  8  1  1
  8 14  1  0
  4  5  1  0
 36 28  1  1
 33 30  1  1
 30 38  1  0
 34 31  1  6
 31 39  1  0
 35 32  1  1
 32 40  1  0
 41 43  1  0
 15 19  2  0
 42 43  2  0
 16 22  2  0
 12 17  1  6
 17 19  1  0
 17 20  1  0
 18 19  1  0
 18 22  1  0
 18 23  1  0
  9 10  1  0
  9 11  1  0
 10 12  1  0
 11  5  1  6
 33 34  1  0
 33 35  1  0
 34 36  1  0
 35 37  1  0
 37 43  1  1
 20 21  2  0
 21 22  1  0
M  CHG  3   2  -1  26  -1  41  -1
M  END
>  <COMPND>  (39) 
    udp_gluA.pdb 

>  <AUTHOR>  (39) 
    GENERATED BY OPEN BABEL 3.1.1

>  <MASTER>  (39) 
        0    0    0    0    0    0    0    0   56    0   56    0

>  <minimizedAffinity>  (39) 
-7.58455

>  <CNNscore>  (39) 
0.3515889943

>  <CNNaffinity>  (39) 
4.1227531433

>  <CNN_VS>  (39) 
1.4495146275

>  <CNNaffinity_variance>  (39) 
0.0756043717

$$$$
40
     RDKit          3D

 43 45  0  0  0  0  0  0  0  0999 V2000
   17.0274   73.4027   -6.0014 P   0  0  2  0  0  0  0  0  0  0  0  0
   16.6967   72.3517   -4.8161 O   0  0  0  0  0  0  0  0  0  0  0  0
   15.9425   73.5646   -7.0255 O   0  0  0  0  0  0  0  0  0  0  0  0
   18.4608   72.9107   -6.5682 O   0  0  0  0  0  0  0  0  0  0  0  0
   18.7097   73.0135   -7.9581 C   0  0  0  0  0  0  0  0  0  0  0  0
   18.9336   70.6665   -7.4898 O   0  0  0  0  0  0  0  0  0  0  0  0
   19.5104   70.3281  -10.4129 O   0  0  0  0  0  0  0  0  0  0  0  0
   16.9002   69.5609  -10.2278 O   0  0  0  0  0  0  0  0  0  0  0  0
   18.6092   71.2283   -9.7679 C   0  0  1  0  0  0  0  0  0  0  0  0
   17.3869   70.4829   -9.2752 C   0  0  2  0  0  0  0  0  0  0  0  0
   19.2518   71.6832   -8.4648 C   0  0  1  0  0  0  0  0  0  0  0  0
   17.9148   69.8052   -8.0221 C   0  0  2  0  0  0  0  0  0  0  0  0
   19.1215   70.0238  -11.2482 H   0  0  0  0  0  0  0  0  0  0  0  0
   16.5756   70.0413  -11.0062 H   0  0  0  0  0  0  0  0  0  0  0  0
   15.2070   70.5333   -8.3605 O   0  0  0  0  0  0  0  0  0  0  0  0
   14.0900   69.0439   -4.1441 O   0  0  0  0  0  0  0  0  0  0  0  0
   16.8950   69.6190   -7.0290 N   0  0  0  0  0  0  0  0  0  0  0  0
   14.6534   69.7918   -6.2598 N   0  0  0  0  0  0  0  0  0  0  0  0
   15.5651   70.0195   -7.2991 C   0  0  0  0  0  0  0  0  0  0  0  0
   17.2156   69.0443   -5.8051 C   0  0  0  0  0  0  0  0  0  0  0  0
   16.3357   68.8335   -4.8242 C   0  0  0  0  0  0  0  0  0  0  0  0
   14.9249   69.2242   -5.0254 C   0  0  0  0  0  0  0  0  0  0  0  0
   13.7217   70.0643   -6.4237 H   0  0  0  0  0  0  0  0  0  0  0  0
   17.3995   74.7535   -5.1954 O   0  0  0  0  0  0  0  0  0  0  0  0
   18.8140   75.2988   -4.6337 P   0  0  2  0  0  0  0  0  0  0  0  0
   18.3751   76.4267   -3.5588 O   0  0  0  0  0  0  0  0  0  0  0  0
   19.7510   75.7907   -5.6985 O   0  0  0  0  0  0  0  0  0  0  0  0
   19.3935   74.0877   -3.7394 O   0  0  0  0  0  0  0  0  0  0  0  0
   21.7302   74.2173   -3.3755 O   0  0  0  0  0  0  0  0  0  0  0  0
   20.8463   70.4844   -1.8418 O   0  0  0  0  0  0  0  0  0  0  0  0
   19.6329   71.3831   -4.3427 O   0  0  0  0  0  0  0  0  0  0  0  0
   21.3564   72.7152   -0.0489 O   0  0  0  0  0  0  0  0  0  0  0  0
   20.5976   71.8521   -2.1665 C   0  0  2  0  0  0  0  0  0  0  0  0
   20.7030   72.0462   -3.6794 C   0  0  2  0  0  0  0  0  0  0  0  0
   21.6428   72.7068   -1.4462 C   0  0  1  0  0  0  0  0  0  0  0  0
   20.6711   73.5311   -4.0440 C   0  0  1  0  0  0  0  0  0  0  0  0
   21.6325   74.1455   -1.9548 C   0  0  1  0  0  0  0  0  0  0  0  0
   20.1941   69.9220   -2.2885 H   0  0  0  0  0  0  0  0  0  0  0  0
   19.6469   70.4404   -4.1156 H   0  0  0  0  0  0  0  0  0  0  0  0
   21.3598   71.8053    0.2873 H   0  0  0  0  0  0  0  0  0  0  0  0
   23.0400   76.0008   -2.2349 O   0  0  0  0  0  0  0  0  0  0  0  0
   23.5815   74.5242   -0.5839 O   0  0  0  0  0  0  0  0  0  0  0  0
   22.8514   74.8786   -1.4973 C   0  0  0  0  0  0  0  0  0  0  0  0
  1  4  1  0
  1 24  1  0
  1  2  1  1
  1  3  2  0
 25 28  1  0
 25 24  1  0
 25 26  1  1
 25 27  2  0
  6 11  1  0
  6 12  1  0
 29 36  1  0
 29 37  1  0
  9  7  1  1
  7 13  1  0
 10  8  1  6
  8 14  1  0
  4  5  1  0
 36 28  1  1
 33 30  1  6
 30 38  1  0
 34 31  1  6
 31 39  1  0
 35 32  1  1
 32 40  1  0
 41 43  1  0
 15 19  2  0
 42 43  2  0
 16 22  2  0
 12 17  1  1
 17 19  1  0
 17 20  1  0
 18 19  1  0
 18 22  1  0
 18 23  1  0
  9 10  1  0
  9 11  1  0
 10 12  1  0
 11  5  1  1
 33 34  1  0
 33 35  1  0
 34 36  1  0
 35 37  1  0
 37 43  1  1
 20 21  2  0
 21 22  1  0
M  CHG  3   2  -1  26  -1  41  -1
M  END
>  <COMPND>  (40) 
    udp_gluA.pdb 

>  <AUTHOR>  (40) 
    GENERATED BY OPEN BABEL 3.1.1

>  <MASTER>  (40) 
        0    0    0    0    0    0    0    0   56    0   56    0

>  <minimizedAffinity>  (40) 
-6.99647

>  <CNNscore>  (40) 
0.3453049064

>  <CNNaffinity>  (40) 
3.9133560658

>  <CNN_VS>  (40) 
1.3513010740

>  <CNNaffinity_variance>  (40) 
0.6506295800

$$$$
41
     RDKit          3D

 43 45  0  0  0  0  0  0  0  0999 V2000
   17.6165   69.9360   -5.9829 P   0  0  2  0  0  0  0  0  0  0  0  0
   17.1106   68.4844   -5.4769 O   0  0  0  0  0  0  0  0  0  0  0  0
   16.5254   70.9351   -6.2337 O   0  0  0  0  0  0  0  0  0  0  0  0
   18.5640   69.5972   -7.2500 O   0  0  0  0  0  0  0  0  0  0  0  0
   18.0063   69.6686   -8.5494 C   0  0  0  0  0  0  0  0  0  0  0  0
   17.8931   71.3815  -10.2319 O   0  0  0  0  0  0  0  0  0  0  0  0
   20.6174   72.2178   -9.2991 O   0  0  0  0  0  0  0  0  0  0  0  0
   18.9895   74.0479   -8.1006 O   0  0  0  0  0  0  0  0  0  0  0  0
   19.5172   71.7155   -8.5403 C   0  0  1  0  0  0  0  0  0  0  0  0
   18.4482   72.7784   -8.4005 C   0  0  2  0  0  0  0  0  0  0  0  0
   18.8099   70.6608   -9.3802 C   0  0  1  0  0  0  0  0  0  0  0  0
   17.7799   72.7349   -9.7641 C   0  0  2  0  0  0  0  0  0  0  0  0
   21.0850   72.8935   -8.7829 H   0  0  0  0  0  0  0  0  0  0  0  0
   19.4031   74.0239   -7.2229 H   0  0  0  0  0  0  0  0  0  0  0  0
   16.3437   73.9041  -11.8964 O   0  0  0  0  0  0  0  0  0  0  0  0
   12.4556   74.0713   -9.4268 O   0  0  0  0  0  0  0  0  0  0  0  0
   16.3912   73.0941   -9.7055 N   0  0  0  0  0  0  0  0  0  0  0  0
   14.4088   73.9872  -10.6640 N   0  0  0  0  0  0  0  0  0  0  0  0
   15.7645   73.6761  -10.8327 C   0  0  0  0  0  0  0  0  0  0  0  0
   15.6649   72.8681   -8.5426 C   0  0  0  0  0  0  0  0  0  0  0  0
   14.3732   73.1699   -8.3969 C   0  0  0  0  0  0  0  0  0  0  0  0
   13.6441   73.7819   -9.5271 C   0  0  0  0  0  0  0  0  0  0  0  0
   13.9515   74.3952  -11.4345 H   0  0  0  0  0  0  0  0  0  0  0  0
   18.6766   70.3688   -4.8419 O   0  0  0  0  0  0  0  0  0  0  0  0
   18.5063   70.5345   -3.2428 P   0  0  2  0  0  0  0  0  0  0  0  0
   18.9912   69.1008   -2.6686 O   0  0  0  0  0  0  0  0  0  0  0  0
   17.1274   70.9401   -2.8091 O   0  0  0  0  0  0  0  0  0  0  0  0
   19.6730   71.5616   -2.8112 O   0  0  0  0  0  0  0  0  0  0  0  0
   21.3449   72.4052   -4.2612 O   0  0  0  0  0  0  0  0  0  0  0  0
   23.1800   72.7436   -0.5754 O   0  0  0  0  0  0  0  0  0  0  0  0
   21.6318   70.3585   -1.2453 O   0  0  0  0  0  0  0  0  0  0  0  0
   22.1175   75.1039   -1.8986 O   0  0  0  0  0  0  0  0  0  0  0  0
   22.0827   72.7300   -1.4884 C   0  0  2  0  0  0  0  0  0  0  0  0
   22.0066   71.3669   -2.1767 C   0  0  2  0  0  0  0  0  0  0  0  0
   22.3130   73.8356   -2.5211 C   0  0  1  0  0  0  0  0  0  0  0  0
   20.9935   71.3882   -3.3221 C   0  0  1  0  0  0  0  0  0  0  0  0
   21.3442   73.7132   -3.6937 C   0  0  1  0  0  0  0  0  0  0  0  0
   23.0555   72.0490    0.0905 H   0  0  0  0  0  0  0  0  0  0  0  0
   22.2702   70.3396   -0.5156 H   0  0  0  0  0  0  0  0  0  0  0  0
   22.7281   75.1944   -1.1504 H   0  0  0  0  0  0  0  0  0  0  0  0
   22.9148   74.0866   -5.3953 O   0  0  0  0  0  0  0  0  0  0  0  0
   21.1999   75.5787   -5.2171 O   0  0  0  0  0  0  0  0  0  0  0  0
   21.7805   74.5740   -4.8343 C   0  0  0  0  0  0  0  0  0  0  0  0
  1  4  1  0
  1 24  1  0
  1  2  1  1
  1  3  2  0
 25 28  1  0
 25 24  1  0
 25 26  1  1
 25 27  2  0
  6 11  1  0
  6 12  1  0
 29 36  1  0
 29 37  1  0
  9  7  1  6
  7 13  1  0
 10  8  1  6
  8 14  1  0
  4  5  1  0
 36 28  1  1
 33 30  1  1
 30 38  1  0
 34 31  1  1
 31 39  1  0
 35 32  1  1
 32 40  1  0
 41 43  1  0
 15 19  2  0
 42 43  2  0
 16 22  2  0
 12 17  1  1
 17 19  1  0
 17 20  1  0
 18 19  1  0
 18 22  1  0
 18 23  1  0
  9 10  1  0
  9 11  1  0
 10 12  1  0
 11  5  1  1
 33 34  1  0
 33 35  1  0
 34 36  1  0
 35 37  1  0
 37 43  1  6
 20 21  2  0
 21 22  1  0
M  CHG  3   2  -1  26  -1  41  -1
M  END
>  <COMPND>  (41) 
    udp_gluA.pdb 

>  <AUTHOR>  (41) 
    GENERATED BY OPEN BABEL 3.1.1

>  <MASTER>  (41) 
        0    0    0    0    0    0    0    0   56    0   56    0

>  <minimizedAffinity>  (41) 
-7.72456

>  <CNNscore>  (41) 
0.7730240822

>  <CNNaffinity>  (41) 
4.4974145889

>  <CNN_VS>  (41) 
3.4766097069

>  <CNNaffinity_variance>  (41) 
0.2194897830

$$$$
42
     RDKit          3D

 43 45  0  0  0  0  0  0  0  0999 V2000
   21.1715   71.3278   -2.2642 P   0  0  2  0  0  0  0  0  0  0  0  0
   22.7035   70.9302   -1.9272 O   0  0  0  0  0  0  0  0  0  0  0  0
   20.4830   72.1461   -1.2115 O   0  0  0  0  0  0  0  0  0  0  0  0
   20.4729   69.9131   -2.6229 O   0  0  0  0  0  0  0  0  0  0  0  0
   19.6475   69.8384   -3.7708 C   0  0  0  0  0  0  0  0  0  0  0  0
   17.9275   71.2433   -4.6901 O   0  0  0  0  0  0  0  0  0  0  0  0
   16.2266   70.3506   -2.3876 O   0  0  0  0  0  0  0  0  0  0  0  0
   15.3073   68.8089   -4.4405 O   0  0  0  0  0  0  0  0  0  0  0  0
   17.1943   69.6137   -3.1353 C   0  0  1  0  0  0  0  0  0  0  0  0
   16.6439   69.2609   -4.5009 C   0  0  2  0  0  0  0  0  0  0  0  0
   18.3357   70.5584   -3.4862 C   0  0  1  0  0  0  0  0  0  0  0  0
   16.7831   70.5770   -5.2467 C   0  0  2  0  0  0  0  0  0  0  0  0
   15.4874   69.7677   -2.1519 H   0  0  0  0  0  0  0  0  0  0  0  0
   15.2717   67.9685   -3.9564 H   0  0  0  0  0  0  0  0  0  0  0  0
   14.7144   70.5029   -7.1681 O   0  0  0  0  0  0  0  0  0  0  0  0
   17.6970   69.8526  -10.6214 O   0  0  0  0  0  0  0  0  0  0  0  0
   16.9909   70.3897   -6.6547 N   0  0  0  0  0  0  0  0  0  0  0  0
   16.2018   70.1780   -8.8861 N   0  0  0  0  0  0  0  0  0  0  0  0
   15.8832   70.3679   -7.5349 C   0  0  0  0  0  0  0  0  0  0  0  0
   18.2793   70.2319   -7.1507 C   0  0  0  0  0  0  0  0  0  0  0  0
   18.5672   70.0519   -8.4413 C   0  0  0  0  0  0  0  0  0  0  0  0
   17.4670   70.0158   -9.4269 C   0  0  0  0  0  0  0  0  0  0  0  0
   15.4469   70.1572   -9.5178 H   0  0  0  0  0  0  0  0  0  0  0  0
   21.2924   72.0491   -3.7056 O   0  0  0  0  0  0  0  0  0  0  0  0
   21.8389   73.5140   -4.1170 P   0  0  2  0  0  0  0  0  0  0  0  0
   20.5546   74.2037   -4.8207 O   0  0  0  0  0  0  0  0  0  0  0  0
   23.0744   73.4933   -4.9696 O   0  0  0  0  0  0  0  0  0  0  0  0
   22.0051   74.2970   -2.7163 O   0  0  0  0  0  0  0  0  0  0  0  0
   23.6386   76.0090   -2.8152 O   0  0  0  0  0  0  0  0  0  0  0  0
   22.7079   75.9666    1.2097 O   0  0  0  0  0  0  0  0  0  0  0  0
   23.0202   73.4638   -0.2645 O   0  0  0  0  0  0  0  0  0  0  0  0
   21.6901   78.0851   -0.5011 O   0  0  0  0  0  0  0  0  0  0  0  0
   22.4552   75.8220   -0.1879 C   0  0  2  0  0  0  0  0  0  0  0  0
   23.3760   74.7470   -0.7659 C   0  0  2  0  0  0  0  0  0  0  0  0
   22.7245   77.1706   -0.8591 C   0  0  1  0  0  0  0  0  0  0  0  0
   23.2987   74.7239   -2.2931 C   0  0  1  0  0  0  0  0  0  0  0  0
   22.7555   77.0400   -2.3792 C   0  0  1  0  0  0  0  0  0  0  0  0
   22.5434   75.1217    1.6573 H   0  0  0  0  0  0  0  0  0  0  0  0
   23.0668   73.4713    0.7041 H   0  0  0  0  0  0  0  0  0  0  0  0
   21.6596   78.1771    0.4640 H   0  0  0  0  0  0  0  0  0  0  0  0
   23.3128   78.1698   -4.3577 O   0  0  0  0  0  0  0  0  0  0  0  0
   23.7719   79.2282   -2.3909 O   0  0  0  0  0  0  0  0  0  0  0  0
   23.3362   78.2661   -3.0052 C   0  0  0  0  0  0  0  0  0  0  0  0
  1  4  1  0
  1 24  1  0
  1  2  1  1
  1  3  2  0
 25 28  1  0
 25 24  1  0
 25 26  1  6
 25 27  2  0
  6 11  1  0
  6 12  1  0
 29 36  1  0
 29 37  1  0
  9  7  1  1
  7 13  1  0
 10  8  1  1
  8 14  1  0
  4  5  1  0
 36 28  1  1
 33 30  1  1
 30 38  1  0
 34 31  1  1
 31 39  1  0
 35 32  1  6
 32 40  1  0
 41 43  1  0
 15 19  2  0
 42 43  2  0
 16 22  2  0
 12 17  1  6
 17 19  1  0
 17 20  1  0
 18 19  1  0
 18 22  1  0
 18 23  1  0
  9 10  1  0
  9 11  1  0
 10 12  1  0
 11  5  1  6
 33 34  1  0
 33 35  1  0
 34 36  1  0
 35 37  1  0
 37 43  1  6
 20 21  2  0
 21 22  1  0
M  CHG  3   2  -1  26  -1  41  -1
M  END
>  <COMPND>  (42) 
    udp_gluA.pdb 

>  <AUTHOR>  (42) 
    GENERATED BY OPEN BABEL 3.1.1

>  <MASTER>  (42) 
        0    0    0    0    0    0    0    0   56    0   56    0

>  <minimizedAffinity>  (42) 
-6.95433

>  <CNNscore>  (42) 
0.6615983844

>  <CNNaffinity>  (42) 
4.4689640999

>  <CNN_VS>  (42) 
2.9566593170

>  <CNNaffinity_variance>  (42) 
0.0710106567

$$$$
43
     RDKit          3D

 43 45  0  0  0  0  0  0  0  0999 V2000
   19.6539   73.2997   -7.5627 P   0  0  2  0  0  0  0  0  0  0  0  0
   19.1274   74.7280   -8.1119 O   0  0  0  0  0  0  0  0  0  0  0  0
   21.0937   73.2750   -7.1405 O   0  0  0  0  0  0  0  0  0  0  0  0
   19.2470   72.2594   -8.7333 O   0  0  0  0  0  0  0  0  0  0  0  0
   19.9491   71.0332   -8.8221 C   0  0  0  0  0  0  0  0  0  0  0  0
   18.7099   69.0723   -8.1922 O   0  0  0  0  0  0  0  0  0  0  0  0
   17.0717   69.5422  -10.6594 O   0  0  0  0  0  0  0  0  0  0  0  0
   15.4693   70.5252   -8.6840 O   0  0  0  0  0  0  0  0  0  0  0  0
   17.6481   70.4923   -9.7629 C   0  0  1  0  0  0  0  0  0  0  0  0
   16.8649   70.5330   -8.4678 C   0  0  2  0  0  0  0  0  0  0  0  0
   18.9943   69.9486   -9.3042 C   0  0  1  0  0  0  0  0  0  0  0  0
   17.3546   69.2791   -7.7635 C   0  0  2  0  0  0  0  0  0  0  0  0
   16.2104   69.8677  -10.9660 H   0  0  0  0  0  0  0  0  0  0  0  0
   15.2073   71.3439   -9.1345 H   0  0  0  0  0  0  0  0  0  0  0  0
   15.0478   68.9456   -6.1686 O   0  0  0  0  0  0  0  0  0  0  0  0
   17.3840   69.8017   -2.2887 O   0  0  0  0  0  0  0  0  0  0  0  0
   17.3317   69.4091   -6.3340 N   0  0  0  0  0  0  0  0  0  0  0  0
   16.2133   69.3733   -4.2378 N   0  0  0  0  0  0  0  0  0  0  0  0
   16.1201   69.2218   -5.6276 C   0  0  0  0  0  0  0  0  0  0  0  0
   18.4995   69.7170   -5.6468 C   0  0  0  0  0  0  0  0  0  0  0  0
   18.5727   69.8581   -4.3219 C   0  0  0  0  0  0  0  0  0  0  0  0
   17.3514   69.6796   -3.5095 C   0  0  0  0  0  0  0  0  0  0  0  0
   15.3823   69.2496   -3.7246 H   0  0  0  0  0  0  0  0  0  0  0  0
   18.6012   72.9528   -6.3862 O   0  0  0  0  0  0  0  0  0  0  0  0
   17.9205   73.8921   -5.2601 P   0  0  2  0  0  0  0  0  0  0  0  0
   16.7773   72.9383   -4.6246 O   0  0  0  0  0  0  0  0  0  0  0  0
   17.4115   75.2056   -5.7793 O   0  0  0  0  0  0  0  0  0  0  0  0
   19.0366   74.0171   -4.1021 O   0  0  0  0  0  0  0  0  0  0  0  0
   19.6240   72.3681   -2.5068 O   0  0  0  0  0  0  0  0  0  0  0  0
   20.5581   75.8538   -0.4956 O   0  0  0  0  0  0  0  0  0  0  0  0
   18.1008   75.6621   -2.0638 O   0  0  0  0  0  0  0  0  0  0  0  0
   22.6721   74.2136   -1.6322 O   0  0  0  0  0  0  0  0  0  0  0  0
   20.3983   75.0102   -1.6361 C   0  0  2  0  0  0  0  0  0  0  0  0
   18.9407   74.5602   -1.7395 C   0  0  2  0  0  0  0  0  0  0  0  0
   21.3179   73.7996   -1.4614 C   0  0  1  0  0  0  0  0  0  0  0  0
   18.7768   73.4778   -2.8073 C   0  0  1  0  0  0  0  0  0  0  0  0
   21.0076   72.7119   -2.4857 C   0  0  1  0  0  0  0  0  0  0  0  0
   19.9831   76.6302   -0.5843 H   0  0  0  0  0  0  0  0  0  0  0  0
   18.2000   76.3529   -1.3905 H   0  0  0  0  0  0  0  0  0  0  0  0
   22.8824   74.9060   -0.9862 H   0  0  0  0  0  0  0  0  0  0  0  0
   22.9978   71.4764   -2.3663 O   0  0  0  0  0  0  0  0  0  0  0  0
   21.0949   70.4564   -1.6333 O   0  0  0  0  0  0  0  0  0  0  0  0
   21.6673   71.4252   -2.1095 C   0  0  0  0  0  0  0  0  0  0  0  0
  1  4  1  0
  1 24  1  0
  1  2  1  6
  1  3  2  0
 25 28  1  0
 25 24  1  0
 25 26  1  1
 25 27  2  0
  6 11  1  0
  6 12  1  0
 29 36  1  0
 29 37  1  0
  9  7  1  6
  7 13  1  0
 10  8  1  6
  8 14  1  0
  4  5  1  0
 36 28  1  6
 33 30  1  1
 30 38  1  0
 34 31  1  6
 31 39  1  0
 35 32  1  6
 32 40  1  0
 41 43  1  0
 15 19  2  0
 42 43  2  0
 16 22  2  0
 12 17  1  1
 17 19  1  0
 17 20  1  0
 18 19  1  0
 18 22  1  0
 18 23  1  0
  9 10  1  0
  9 11  1  0
 10 12  1  0
 11  5  1  1
 33 34  1  0
 33 35  1  0
 34 36  1  0
 35 37  1  0
 37 43  1  1
 20 21  2  0
 21 22  1  0
M  CHG  3   2  -1  26  -1  41  -1
M  END
>  <COMPND>  (43) 
    udp_gluA.pdb 

>  <AUTHOR>  (43) 
    GENERATED BY OPEN BABEL 3.1.1

>  <MASTER>  (43) 
        0    0    0    0    0    0    0    0   56    0   56    0

>  <minimizedAffinity>  (43) 
-7.44353

>  <CNNscore>  (43) 
0.6091013551

>  <CNNaffinity>  (43) 
4.3741693497

>  <CNN_VS>  (43) 
2.6643123627

>  <CNNaffinity_variance>  (43) 
0.5064340234

$$$$
44
     RDKit          3D

 43 45  0  0  0  0  0  0  0  0999 V2000
   19.8258   72.6524   -5.1832 P   0  0  2  0  0  0  0  0  0  0  0  0
   18.6634   73.2715   -4.2428 O   0  0  0  0  0  0  0  0  0  0  0  0
   20.5993   73.6608   -5.9812 O   0  0  0  0  0  0  0  0  0  0  0  0
   19.0646   71.5115   -6.0415 O   0  0  0  0  0  0  0  0  0  0  0  0
   18.5794   71.8450   -7.3291 C   0  0  0  0  0  0  0  0  0  0  0  0
   17.5406   69.7058   -6.9793 O   0  0  0  0  0  0  0  0  0  0  0  0
   16.8426   69.7762   -9.8946 O   0  0  0  0  0  0  0  0  0  0  0  0
   14.4990   70.5001   -8.7032 O   0  0  0  0  0  0  0  0  0  0  0  0
   16.8929   70.8469   -8.9514 C   0  0  1  0  0  0  0  0  0  0  0  0
   15.7022   70.7798   -8.0186 C   0  0  2  0  0  0  0  0  0  0  0  0
   18.0552   70.5839   -8.0037 C   0  0  1  0  0  0  0  0  0  0  0  0
   16.1076   69.6652   -7.0693 C   0  0  2  0  0  0  0  0  0  0  0  0
   16.1075   69.9221  -10.5110 H   0  0  0  0  0  0  0  0  0  0  0  0
   14.2840   71.2393   -9.2943 H   0  0  0  0  0  0  0  0  0  0  0  0
   13.6275   68.6007   -6.2373 O   0  0  0  0  0  0  0  0  0  0  0  0
   14.0763   70.3780   -2.0084 O   0  0  0  0  0  0  0  0  0  0  0  0
   15.5523   69.8345   -5.7564 N   0  0  0  0  0  0  0  0  0  0  0  0
   13.8529   69.4878   -4.1321 N   0  0  0  0  0  0  0  0  0  0  0  0
   14.2989   69.2589   -5.4405 C   0  0  0  0  0  0  0  0  0  0  0  0
   16.2474   70.5618   -4.7978 C   0  0  0  0  0  0  0  0  0  0  0  0
   15.8095   70.7713   -3.5548 C   0  0  0  0  0  0  0  0  0  0  0  0
   14.5081   70.2047   -3.1440 C   0  0  0  0  0  0  0  0  0  0  0  0
   12.9817   69.0986   -3.8894 H   0  0  0  0  0  0  0  0  0  0  0  0
   20.7146   71.7920   -4.1427 O   0  0  0  0  0  0  0  0  0  0  0  0
   20.4030   71.2999   -2.6346 P   0  0  2  0  0  0  0  0  0  0  0  0
   21.5739   70.2194   -2.3488 O   0  0  0  0  0  0  0  0  0  0  0  0
   19.0120   70.7719   -2.4341 O   0  0  0  0  0  0  0  0  0  0  0  0
   20.7797   72.5638   -1.7056 O   0  0  0  0  0  0  0  0  0  0  0  0
   22.8567   73.3836   -2.4950 O   0  0  0  0  0  0  0  0  0  0  0  0
   21.9904   76.0618    0.5290 O   0  0  0  0  0  0  0  0  0  0  0  0
   21.5124   73.2038    0.9001 O   0  0  0  0  0  0  0  0  0  0  0  0
   21.6532   76.8411   -2.2513 O   0  0  0  0  0  0  0  0  0  0  0  0
   21.6942   75.1537   -0.5320 C   0  0  2  0  0  0  0  0  0  0  0  0
   22.2385   73.7675   -0.1860 C   0  0  2  0  0  0  0  0  0  0  0  0
   22.3565   75.6828   -1.8060 C   0  0  1  0  0  0  0  0  0  0  0  0
   22.1453   72.8274   -1.3886 C   0  0  1  0  0  0  0  0  0  0  0  0
   22.3338   74.6402   -2.9200 C   0  0  1  0  0  0  0  0  0  0  0  0
   21.5797   75.7460    1.3493 H   0  0  0  0  0  0  0  0  0  0  0  0
   21.5670   73.7953    1.6666 H   0  0  0  0  0  0  0  0  0  0  0  0
   21.6602   77.5126   -1.5513 H   0  0  0  0  0  0  0  0  0  0  0  0
   22.7512   76.0782   -4.7253 O   0  0  0  0  0  0  0  0  0  0  0  0
   24.3200   74.4843   -4.2809 O   0  0  0  0  0  0  0  0  0  0  0  0
   23.2556   75.0292   -4.0296 C   0  0  0  0  0  0  0  0  0  0  0  0
  1  4  1  0
  1 24  1  0
  1  2  1  1
  1  3  2  0
 25 28  1  0
 25 24  1  0
 25 26  1  1
 25 27  2  0
  6 11  1  0
  6 12  1  0
 29 36  1  0
 29 37  1  0
  9  7  1  6
  7 13  1  0
 10  8  1  6
  8 14  1  0
  4  5  1  0
 36 28  1  6
 33 30  1  1
 30 38  1  0
 34 31  1  1
 31 39  1  0
 35 32  1  6
 32 40  1  0
 41 43  1  0
 15 19  2  0
 42 43  2  0
 16 22  2  0
 12 17  1  1
 17 19  1  0
 17 20  1  0
 18 19  1  0
 18 22  1  0
 18 23  1  0
  9 10  1  0
  9 11  1  0
 10 12  1  0
 11  5  1  1
 33 34  1  0
 33 35  1  0
 34 36  1  0
 35 37  1  0
 37 43  1  6
 20 21  2  0
 21 22  1  0
M  CHG  3   2  -1  26  -1  41  -1
M  END
>  <COMPND>  (44) 
    udp_gluA.pdb 

>  <AUTHOR>  (44) 
    GENERATED BY OPEN BABEL 3.1.1

>  <MASTER>  (44) 
        0    0    0    0    0    0    0    0   56    0   56    0

>  <minimizedAffinity>  (44) 
-7.19778

>  <CNNscore>  (44) 
0.6079246998

>  <CNNaffinity>  (44) 
4.5226235390

>  <CNN_VS>  (44) 
2.7494144440

>  <CNNaffinity_variance>  (44) 
0.1595701724

$$$$
45
     RDKit          3D

 43 45  0  0  0  0  0  0  0  0999 V2000
   21.4126   71.5407   -2.1680 P   0  0  2  0  0  0  0  0  0  0  0  0
   22.9646   71.1517   -2.4106 O   0  0  0  0  0  0  0  0  0  0  0  0
   21.1049   72.1024   -0.8109 O   0  0  0  0  0  0  0  0  0  0  0  0
   20.6075   70.1964   -2.5710 O   0  0  0  0  0  0  0  0  0  0  0  0
   19.8508   70.1946   -3.7676 C   0  0  0  0  0  0  0  0  0  0  0  0
   17.9596   71.3801   -4.6595 O   0  0  0  0  0  0  0  0  0  0  0  0
   16.3890   70.2052   -2.3914 O   0  0  0  0  0  0  0  0  0  0  0  0
   15.6898   68.6100   -4.4897 O   0  0  0  0  0  0  0  0  0  0  0  0
   17.4486   69.6254   -3.1527 C   0  0  1  0  0  0  0  0  0  0  0  0
   16.9537   69.2388   -4.5303 C   0  0  2  0  0  0  0  0  0  0  0  0
   18.4534   70.7239   -3.4717 C   0  0  1  0  0  0  0  0  0  0  0  0
   16.9164   70.5814   -5.2402 C   0  0  2  0  0  0  0  0  0  0  0  0
   15.7343   69.5222   -2.1755 H   0  0  0  0  0  0  0  0  0  0  0  0
   15.7664   67.7596   -4.0283 H   0  0  0  0  0  0  0  0  0  0  0  0
   14.8937   70.1361   -7.1603 O   0  0  0  0  0  0  0  0  0  0  0  0
   17.9306   70.1392  -10.6275 O   0  0  0  0  0  0  0  0  0  0  0  0
   17.1506   70.4618   -6.6515 N   0  0  0  0  0  0  0  0  0  0  0  0
   16.4083   70.1370   -8.8852 N   0  0  0  0  0  0  0  0  0  0  0  0
   16.0647   70.2384   -7.5307 C   0  0  0  0  0  0  0  0  0  0  0  0
   18.4428   70.5673   -7.1515 C   0  0  0  0  0  0  0  0  0  0  0  0
   18.7547   70.4686   -8.4452 C   0  0  0  0  0  0  0  0  0  0  0  0
   17.6784   70.2344   -9.4302 C   0  0  0  0  0  0  0  0  0  0  0  0
   15.6694   69.9794   -9.5164 H   0  0  0  0  0  0  0  0  0  0  0  0
   21.0920   72.5389   -3.3983 O   0  0  0  0  0  0  0  0  0  0  0  0
   21.9493   73.7560   -4.0288 P   0  0  2  0  0  0  0  0  0  0  0  0
   20.8215   74.8672   -4.3656 O   0  0  0  0  0  0  0  0  0  0  0  0
   22.8025   73.3658   -5.2009 O   0  0  0  0  0  0  0  0  0  0  0  0
   22.7665   74.3705   -2.7809 O   0  0  0  0  0  0  0  0  0  0  0  0
   22.1831   74.8819   -0.5433 O   0  0  0  0  0  0  0  0  0  0  0  0
   24.7058   78.0133   -1.4910 O   0  0  0  0  0  0  0  0  0  0  0  0
   22.7184   77.0777   -3.4170 O   0  0  0  0  0  0  0  0  0  0  0  0
   25.6441   75.8448    0.2026 O   0  0  0  0  0  0  0  0  0  0  0  0
   24.2114   76.6753   -1.5474 C   0  0  2  0  0  0  0  0  0  0  0  0
   22.7676   76.6840   -2.0505 C   0  0  2  0  0  0  0  0  0  0  0  0
   24.2799   76.0859   -0.1368 C   0  0  1  0  0  0  0  0  0  0  0  0
   22.1300   75.3013   -1.9073 C   0  0  1  0  0  0  0  0  0  0  0  0
   23.5145   74.7689   -0.0455 C   0  0  1  0  0  0  0  0  0  0  0  0
   24.6718   78.4084   -2.3764 H   0  0  0  0  0  0  0  0  0  0  0  0
   23.1216   77.9542   -3.5152 H   0  0  0  0  0  0  0  0  0  0  0  0
   26.1425   76.6752    0.1482 H   0  0  0  0  0  0  0  0  0  0  0  0
   22.0257   74.6041    1.7595 O   0  0  0  0  0  0  0  0  0  0  0  0
   24.1673   73.9045    2.1104 O   0  0  0  0  0  0  0  0  0  0  0  0
   23.3071   74.3737    1.3804 C   0  0  0  0  0  0  0  0  0  0  0  0
  1  4  1  0
  1 24  1  0
  1  2  1  1
  1  3  2  0
 25 28  1  0
 25 24  1  0
 25 26  1  6
 25 27  2  0
  6 11  1  0
  6 12  1  0
 29 36  1  0
 29 37  1  0
  9  7  1  1
  7 13  1  0
 10  8  1  1
  8 14  1  0
  4  5  1  0
 36 28  1  6
 33 30  1  1
 30 38  1  0
 34 31  1  6
 31 39  1  0
 35 32  1  6
 32 40  1  0
 41 43  1  0
 15 19  2  0
 42 43  2  0
 16 22  2  0
 12 17  1  6
 17 19  1  0
 17 20  1  0
 18 19  1  0
 18 22  1  0
 18 23  1  0
  9 10  1  0
  9 11  1  0
 10 12  1  0
 11  5  1  6
 33 34  1  0
 33 35  1  0
 34 36  1  0
 35 37  1  0
 37 43  1  1
 20 21  2  0
 21 22  1  0
M  CHG  3   2  -1  26  -1  41  -1
M  END
>  <COMPND>  (45) 
    udp_gluA.pdb 

>  <AUTHOR>  (45) 
    GENERATED BY OPEN BABEL 3.1.1

>  <MASTER>  (45) 
        0    0    0    0    0    0    0    0   56    0   56    0

>  <minimizedAffinity>  (45) 
-7.16438

>  <CNNscore>  (45) 
0.5862378478

>  <CNNaffinity>  (45) 
4.4146828651

>  <CNN_VS>  (45) 
2.5880541801

>  <CNNaffinity_variance>  (45) 
0.0854434818

$$$$
46
     RDKit          3D

 43 45  0  0  0  0  0  0  0  0999 V2000
   19.8058   73.3944   -7.5839 P   0  0  2  0  0  0  0  0  0  0  0  0
   19.1114   74.7713   -8.0745 O   0  0  0  0  0  0  0  0  0  0  0  0
   21.3038   73.4333   -7.5048 O   0  0  0  0  0  0  0  0  0  0  0  0
   19.1832   72.2726   -8.5698 O   0  0  0  0  0  0  0  0  0  0  0  0
   19.9551   71.1208   -8.8564 C   0  0  0  0  0  0  0  0  0  0  0  0
   18.7714   69.1207   -8.2431 O   0  0  0  0  0  0  0  0  0  0  0  0
   17.1207   69.5651  -10.7067 O   0  0  0  0  0  0  0  0  0  0  0  0
   15.4913   70.4861   -8.7236 O   0  0  0  0  0  0  0  0  0  0  0  0
   17.6702   70.5234   -9.8022 C   0  0  1  0  0  0  0  0  0  0  0  0
   16.8862   70.5313   -8.5070 C   0  0  2  0  0  0  0  0  0  0  0  0
   19.0311   70.0140   -9.3477 C   0  0  1  0  0  0  0  0  0  0  0  0
   17.4108   69.2859   -7.8131 C   0  0  2  0  0  0  0  0  0  0  0  0
   16.2507   69.8688  -11.0109 H   0  0  0  0  0  0  0  0  0  0  0  0
   15.2065   71.3010   -9.1674 H   0  0  0  0  0  0  0  0  0  0  0  0
   15.1142   68.8745   -6.2216 O   0  0  0  0  0  0  0  0  0  0  0  0
   17.4253   69.7634   -2.3341 O   0  0  0  0  0  0  0  0  0  0  0  0
   17.3842   69.4033   -6.3826 N   0  0  0  0  0  0  0  0  0  0  0  0
   16.2673   69.3186   -4.2870 N   0  0  0  0  0  0  0  0  0  0  0  0
   16.1784   69.1761   -5.6780 C   0  0  0  0  0  0  0  0  0  0  0  0
   18.5430   69.7381   -5.6925 C   0  0  0  0  0  0  0  0  0  0  0  0
   18.6121   69.8701   -4.3664 C   0  0  0  0  0  0  0  0  0  0  0  0
   17.3963   69.6506   -3.5559 C   0  0  0  0  0  0  0  0  0  0  0  0
   15.4400   69.1673   -3.7751 H   0  0  0  0  0  0  0  0  0  0  0  0
   19.0649   73.0949   -6.1789 O   0  0  0  0  0  0  0  0  0  0  0  0
   18.4499   74.0962   -5.0686 P   0  0  2  0  0  0  0  0  0  0  0  0
   17.3475   73.1811   -4.3153 O   0  0  0  0  0  0  0  0  0  0  0  0
   17.9094   75.3799   -5.6290 O   0  0  0  0  0  0  0  0  0  0  0  0
   19.6319   74.2833   -3.9867 O   0  0  0  0  0  0  0  0  0  0  0  0
   21.9492   73.8263   -4.1609 O   0  0  0  0  0  0  0  0  0  0  0  0
   21.2357   73.0432   -0.1677 O   0  0  0  0  0  0  0  0  0  0  0  0
   19.3425   72.1623   -2.2108 O   0  0  0  0  0  0  0  0  0  0  0  0
   22.5809   75.4968   -0.9558 O   0  0  0  0  0  0  0  0  0  0  0  0
   21.0456   73.6993   -1.4212 C   0  0  2  0  0  0  0  0  0  0  0  0
   20.6431   72.6727   -2.4803 C   0  0  2  0  0  0  0  0  0  0  0  0
   22.3643   74.3731   -1.8071 C   0  0  1  0  0  0  0  0  0  0  0  0
   20.6544   73.2947   -3.8773 C   0  0  1  0  0  0  0  0  0  0  0  0
   22.3408   74.8552   -3.2547 C   0  0  1  0  0  0  0  0  0  0  0  0
   20.4105   72.6076    0.0980 H   0  0  0  0  0  0  0  0  0  0  0  0
   19.3280   71.7663   -1.3257 H   0  0  0  0  0  0  0  0  0  0  0  0
   22.5978   75.2036   -0.0313 H   0  0  0  0  0  0  0  0  0  0  0  0
   24.0729   76.4366   -3.2755 O   0  0  0  0  0  0  0  0  0  0  0  0
   24.4304   74.4875   -4.4033 O   0  0  0  0  0  0  0  0  0  0  0  0
   23.7168   75.2058   -3.7195 C   0  0  0  0  0  0  0  0  0  0  0  0
  1  4  1  0
  1 24  1  0
  1  2  1  6
  1  3  2  0
 25 28  1  0
 25 24  1  0
 25 26  1  1
 25 27  2  0
  6 11  1  0
  6 12  1  0
 29 36  1  0
 29 37  1  0
  9  7  1  6
  7 13  1  0
 10  8  1  6
  8 14  1  0
  4  5  1  0
 36 28  1  1
 33 30  1  1
 30 38  1  0
 34 31  1  1
 31 39  1  0
 35 32  1  1
 32 40  1  0
 41 43  1  0
 15 19  2  0
 42 43  2  0
 16 22  2  0
 12 17  1  1
 17 19  1  0
 17 20  1  0
 18 19  1  0
 18 22  1  0
 18 23  1  0
  9 10  1  0
  9 11  1  0
 10 12  1  0
 11  5  1  1
 33 34  1  0
 33 35  1  0
 34 36  1  0
 35 37  1  0
 37 43  1  6
 20 21  2  0
 21 22  1  0
M  CHG  3   2  -1  26  -1  41  -1
M  END
>  <COMPND>  (46) 
    udp_gluA.pdb 

>  <AUTHOR>  (46) 
    GENERATED BY OPEN BABEL 3.1.1

>  <MASTER>  (46) 
        0    0    0    0    0    0    0    0   56    0   56    0

>  <minimizedAffinity>  (46) 
-7.46460

>  <CNNscore>  (46) 
0.5486633778

>  <CNNaffinity>  (46) 
4.2550568581

>  <CNN_VS>  (46) 
2.3345937729

>  <CNNaffinity_variance>  (46) 
0.5789492130

$$$$
47
     RDKit          3D

 43 45  0  0  0  0  0  0  0  0999 V2000
   18.1958   74.1154   -8.0386 P   0  0  2  0  0  0  0  0  0  0  0  0
   16.6069   74.2460   -8.3164 O   0  0  0  0  0  0  0  0  0  0  0  0
   18.9730   75.3896   -8.1942 O   0  0  0  0  0  0  0  0  0  0  0  0
   18.6572   72.8904   -8.9896 O   0  0  0  0  0  0  0  0  0  0  0  0
   19.3085   71.7822   -8.3964 C   0  0  0  0  0  0  0  0  0  0  0  0
   18.3810   69.6622   -7.7458 O   0  0  0  0  0  0  0  0  0  0  0  0
   17.0574   69.6259  -10.4362 O   0  0  0  0  0  0  0  0  0  0  0  0
   15.0311   70.4045   -8.7857 O   0  0  0  0  0  0  0  0  0  0  0  0
   17.3100   70.7311   -9.5682 C   0  0  1  0  0  0  0  0  0  0  0  0
   16.3544   70.7045   -8.3941 C   0  0  2  0  0  0  0  0  0  0  0  0
   18.6536   70.4988   -8.8908 C   0  0  1  0  0  0  0  0  0  0  0  0
   16.9635   69.6245   -7.5162 C   0  0  2  0  0  0  0  0  0  0  0  0
   16.2039   69.7518  -10.8805 H   0  0  0  0  0  0  0  0  0  0  0  0
   14.6882   71.1218   -9.3423 H   0  0  0  0  0  0  0  0  0  0  0  0
   18.9760   69.8674   -5.5496 O   0  0  0  0  0  0  0  0  0  0  0  0
   15.8770   70.4713   -2.1918 O   0  0  0  0  0  0  0  0  0  0  0  0
   16.7106   69.8456   -6.1205 N   0  0  0  0  0  0  0  0  0  0  0  0
   17.4306   70.1669   -3.8789 N   0  0  0  0  0  0  0  0  0  0  0  0
   17.7928   69.9527   -5.2153 C   0  0  0  0  0  0  0  0  0  0  0  0
   15.4037   69.9557   -5.6614 C   0  0  0  0  0  0  0  0  0  0  0  0
   15.0740   70.1600   -4.3846 C   0  0  0  0  0  0  0  0  0  0  0  0
   16.1454   70.2826   -3.3744 C   0  0  0  0  0  0  0  0  0  0  0  0
   18.1669   70.2428   -3.2298 H   0  0  0  0  0  0  0  0  0  0  0  0
   18.2534   73.4681   -6.5585 O   0  0  0  0  0  0  0  0  0  0  0  0
   17.8533   74.0793   -5.1163 P   0  0  2  0  0  0  0  0  0  0  0  0
   16.5084   73.2655   -4.7299 O   0  0  0  0  0  0  0  0  0  0  0  0
   17.6982   75.5725   -5.1019 O   0  0  0  0  0  0  0  0  0  0  0  0
   18.9763   73.5131   -4.1060 O   0  0  0  0  0  0  0  0  0  0  0  0
   20.3094   73.9335   -2.1941 O   0  0  0  0  0  0  0  0  0  0  0  0
   23.1560   73.7665   -5.1837 O   0  0  0  0  0  0  0  0  0  0  0  0
   20.6261   75.1594   -5.6240 O   0  0  0  0  0  0  0  0  0  0  0  0
   22.8320   71.5334   -3.3509 O   0  0  0  0  0  0  0  0  0  0  0  0
   21.9319   73.4321   -4.5297 C   0  0  2  0  0  0  0  0  0  0  0  0
   21.0818   74.6915   -4.3598 C   0  0  2  0  0  0  0  0  0  0  0  0
   22.2739   72.8326   -3.1638 C   0  0  1  0  0  0  0  0  0  0  0  0
   19.8725   74.4186   -3.4643 C   0  0  1  0  0  0  0  0  0  0  0  0
   21.0336   72.7085   -2.2836 C   0  0  1  0  0  0  0  0  0  0  0  0
   22.9636   74.1495   -6.0541 H   0  0  0  0  0  0  0  0  0  0  0  0
   21.3882   75.3343   -6.1974 H   0  0  0  0  0  0  0  0  0  0  0  0
   23.6222   71.5983   -3.9097 H   0  0  0  0  0  0  0  0  0  0  0  0
   22.0802   71.2626   -0.7618 O   0  0  0  0  0  0  0  0  0  0  0  0
   21.1682   73.1755    0.0797 O   0  0  0  0  0  0  0  0  0  0  0  0
   21.4152   72.4400   -0.8642 C   0  0  0  0  0  0  0  0  0  0  0  0
  1  4  1  0
  1 24  1  0
  1  2  1  6
  1  3  2  0
 25 28  1  0
 25 24  1  0
 25 26  1  1
 25 27  2  0
  6 11  1  0
  6 12  1  0
 29 36  1  0
 29 37  1  0
  9  7  1  6
  7 13  1  0
 10  8  1  6
  8 14  1  0
  4  5  1  0
 36 28  1  6
 33 30  1  1
 30 38  1  0
 34 31  1  6
 31 39  1  0
 35 32  1  6
 32 40  1  0
 41 43  1  0
 15 19  2  0
 42 43  2  0
 16 22  2  0
 12 17  1  1
 17 19  1  0
 17 20  1  0
 18 19  1  0
 18 22  1  0
 18 23  1  0
  9 10  1  0
  9 11  1  0
 10 12  1  0
 11  5  1  1
 33 34  1  0
 33 35  1  0
 34 36  1  0
 35 37  1  0
 37 43  1  1
 20 21  2  0
 21 22  1  0
M  CHG  3   2  -1  26  -1  41  -1
M  END
>  <COMPND>  (47) 
    udp_gluA.pdb 

>  <AUTHOR>  (47) 
    GENERATED BY OPEN BABEL 3.1.1

>  <MASTER>  (47) 
        0    0    0    0    0    0    0    0   56    0   56    0

>  <minimizedAffinity>  (47) 
-7.74890

>  <CNNscore>  (47) 
0.5150233507

>  <CNNaffinity>  (47) 
4.2567052841

>  <CNN_VS>  (47) 
2.1923027039

>  <CNNaffinity_variance>  (47) 
0.5976306796

$$$$
48
     RDKit          3D

 43 45  0  0  0  0  0  0  0  0999 V2000
   17.9706   75.1707   -5.9013 P   0  0  2  0  0  0  0  0  0  0  0  0
   16.4513   75.6990   -5.7239 O   0  0  0  0  0  0  0  0  0  0  0  0
   19.0299   76.1082   -5.4003 O   0  0  0  0  0  0  0  0  0  0  0  0
   18.0646   74.7769   -7.4678 O   0  0  0  0  0  0  0  0  0  0  0  0
   17.3403   73.6501   -7.9263 C   0  0  0  0  0  0  0  0  0  0  0  0
   18.3591   71.5593   -7.3195 O   0  0  0  0  0  0  0  0  0  0  0  0
   19.0829   71.2842  -10.2164 O   0  0  0  0  0  0  0  0  0  0  0  0
   16.9014   69.6637   -9.9909 O   0  0  0  0  0  0  0  0  0  0  0  0
   17.9099   71.8462   -9.6275 C   0  0  1  0  0  0  0  0  0  0  0  0
   17.0142   70.7485   -9.0936 C   0  0  2  0  0  0  0  0  0  0  0  0
   18.3240   72.5679   -8.3524 C   0  0  1  0  0  0  0  0  0  0  0  0
   17.7172   70.3681   -7.8017 C   0  0  2  0  0  0  0  0  0  0  0  0
   18.8435   70.8178  -11.0329 H   0  0  0  0  0  0  0  0  0  0  0  0
   16.4470   69.9568  -10.7969 H   0  0  0  0  0  0  0  0  0  0  0  0
   18.5026   69.2523   -5.3290 O   0  0  0  0  0  0  0  0  0  0  0  0
   14.1301   68.5732   -4.0389 O   0  0  0  0  0  0  0  0  0  0  0  0
   16.8048   69.8917   -6.8010 N   0  0  0  0  0  0  0  0  0  0  0  0
   16.3241   68.9142   -4.6892 N   0  0  0  0  0  0  0  0  0  0  0  0
   17.3026   69.3486   -5.5930 C   0  0  0  0  0  0  0  0  0  0  0  0
   15.4346   69.9662   -7.0199 C   0  0  0  0  0  0  0  0  0  0  0  0
   14.5141   69.5481   -6.1490 C   0  0  0  0  0  0  0  0  0  0  0  0
   14.9505   68.9669   -4.8624 C   0  0  0  0  0  0  0  0  0  0  0  0
   16.6466   68.5304   -3.8418 H   0  0  0  0  0  0  0  0  0  0  0  0
   17.9426   73.7316   -5.1658 O   0  0  0  0  0  0  0  0  0  0  0  0
   17.6259   73.3292   -3.6324 P   0  0  2  0  0  0  0  0  0  0  0  0
   16.8315   71.9260   -3.7747 O   0  0  0  0  0  0  0  0  0  0  0  0
   16.8867   74.3828   -2.8594 O   0  0  0  0  0  0  0  0  0  0  0  0
   19.0588   72.9247   -3.0112 O   0  0  0  0  0  0  0  0  0  0  0  0
   21.1001   72.9331   -4.2120 O   0  0  0  0  0  0  0  0  0  0  0  0
   21.9039   70.2147   -1.2067 O   0  0  0  0  0  0  0  0  0  0  0  0
   19.3222   70.1906   -2.5737 O   0  0  0  0  0  0  0  0  0  0  0  0
   23.0121   72.8993   -1.0807 O   0  0  0  0  0  0  0  0  0  0  0  0
   21.2972   71.3652   -1.7952 C   0  0  2  0  0  0  0  0  0  0  0  0
   20.4546   70.9404   -2.9982 C   0  0  2  0  0  0  0  0  0  0  0  0
   22.4132   72.3151   -2.2359 C   0  0  1  0  0  0  0  0  0  0  0  0
   19.9770   72.1590   -3.7892 C   0  0  1  0  0  0  0  0  0  0  0  0
   21.8748   73.4329   -3.1243 C   0  0  1  0  0  0  0  0  0  0  0  0
   21.2138   69.5965   -0.9190 H   0  0  0  0  0  0  0  0  0  0  0  0
   19.6179   69.4160   -2.0708 H   0  0  0  0  0  0  0  0  0  0  0  0
   23.3586   72.1984   -0.5067 H   0  0  0  0  0  0  0  0  0  0  0  0
   23.5213   75.0986   -2.9977 O   0  0  0  0  0  0  0  0  0  0  0  0
   23.3825   73.9191   -4.9442 O   0  0  0  0  0  0  0  0  0  0  0  0
   22.9918   74.1503   -3.8097 C   0  0  0  0  0  0  0  0  0  0  0  0
  1  4  1  0
  1 24  1  0
  1  2  1  6
  1  3  2  0
 25 28  1  0
 25 24  1  0
 25 26  1  6
 25 27  2  0
  6 11  1  0
  6 12  1  0
 29 36  1  0
 29 37  1  0
  9  7  1  1
  7 13  1  0
 10  8  1  6
  8 14  1  0
  4  5  1  0
 36 28  1  1
 33 30  1  6
 30 38  1  0
 34 31  1  1
 31 39  1  0
 35 32  1  1
 32 40  1  0
 41 43  1  0
 15 19  2  0
 42 43  2  0
 16 22  2  0
 12 17  1  1
 17 19  1  0
 17 20  1  0
 18 19  1  0
 18 22  1  0
 18 23  1  0
  9 10  1  0
  9 11  1  0
 10 12  1  0
 11  5  1  1
 33 34  1  0
 33 35  1  0
 34 36  1  0
 35 37  1  0
 37 43  1  6
 20 21  2  0
 21 22  1  0
M  CHG  3   2  -1  26  -1  41  -1
M  END
>  <COMPND>  (48) 
    udp_gluA.pdb 

>  <AUTHOR>  (48) 
    GENERATED BY OPEN BABEL 3.1.1

>  <MASTER>  (48) 
        0    0    0    0    0    0    0    0   56    0   56    0

>  <minimizedAffinity>  (48) 
-7.07265

>  <CNNscore>  (48) 
0.5115076303

>  <CNNaffinity>  (48) 
4.3250761032

>  <CNN_VS>  (48) 
2.2123093605

>  <CNNaffinity_variance>  (48) 
0.5452820659

$$$$
49
     RDKit          3D

 43 45  0  0  0  0  0  0  0  0999 V2000
   19.6930   73.4232   -7.8274 P   0  0  2  0  0  0  0  0  0  0  0  0
   18.8885   74.7343   -8.3300 O   0  0  0  0  0  0  0  0  0  0  0  0
   21.1819   73.5886   -7.7392 O   0  0  0  0  0  0  0  0  0  0  0  0
   19.1737   72.2479   -8.8108 O   0  0  0  0  0  0  0  0  0  0  0  0
   19.8970   71.0315   -8.8514 C   0  0  0  0  0  0  0  0  0  0  0  0
   18.7105   69.0440   -8.2035 O   0  0  0  0  0  0  0  0  0  0  0  0
   17.0560   69.4515  -10.6710 O   0  0  0  0  0  0  0  0  0  0  0  0
   15.4322   70.4080   -8.7001 O   0  0  0  0  0  0  0  0  0  0  0  0
   17.6091   70.4233   -9.7832 C   0  0  1  0  0  0  0  0  0  0  0  0
   16.8275   70.4539   -8.4868 C   0  0  2  0  0  0  0  0  0  0  0  0
   18.9699   69.9186   -9.3230 C   0  0  1  0  0  0  0  0  0  0  0  0
   17.3511   69.2188   -7.7737 C   0  0  2  0  0  0  0  0  0  0  0  0
   16.1860   69.7519  -10.9784 H   0  0  0  0  0  0  0  0  0  0  0  0
   15.1481   71.2160   -9.1564 H   0  0  0  0  0  0  0  0  0  0  0  0
   15.0573   68.8355   -6.1712 O   0  0  0  0  0  0  0  0  0  0  0  0
   17.3769   69.7855   -2.3033 O   0  0  0  0  0  0  0  0  0  0  0  0
   17.3274   69.3595   -6.3453 N   0  0  0  0  0  0  0  0  0  0  0  0
   16.2145   69.3100   -4.2464 N   0  0  0  0  0  0  0  0  0  0  0  0
   16.1228   69.1450   -5.6347 C   0  0  0  0  0  0  0  0  0  0  0  0
   18.4878   69.7045   -5.6630 C   0  0  0  0  0  0  0  0  0  0  0  0
   18.5597   69.8580   -4.3394 C   0  0  0  0  0  0  0  0  0  0  0  0
   17.3453   69.6529   -3.5230 C   0  0  0  0  0  0  0  0  0  0  0  0
   15.3882   69.1679   -3.7304 H   0  0  0  0  0  0  0  0  0  0  0  0
   18.9706   73.0695   -6.4253 O   0  0  0  0  0  0  0  0  0  0  0  0
   19.3178   73.5147   -4.9104 P   0  0  2  0  0  0  0  0  0  0  0  0
   19.3781   75.1296   -5.0042 O   0  0  0  0  0  0  0  0  0  0  0  0
   20.5586   72.8810   -4.3513 O   0  0  0  0  0  0  0  0  0  0  0  0
   17.9731   73.2054   -4.0746 O   0  0  0  0  0  0  0  0  0  0  0  0
   16.0299   74.1359   -5.0581 O   0  0  0  0  0  0  0  0  0  0  0  0
   14.5692   72.7647   -1.4450 O   0  0  0  0  0  0  0  0  0  0  0  0
   17.1536   74.1202   -1.5790 O   0  0  0  0  0  0  0  0  0  0  0  0
   14.0107   71.3020   -3.8944 O   0  0  0  0  0  0  0  0  0  0  0  0
   15.4177   72.7621   -2.5931 C   0  0  2  0  0  0  0  0  0  0  0  0
   16.2125   74.0671   -2.6450 C   0  0  2  0  0  0  0  0  0  0  0  0
   14.5331   72.6279   -3.8346 C   0  0  1  0  0  0  0  0  0  0  0  0
   16.9572   74.2017   -3.9739 C   0  0  1  0  0  0  0  0  0  0  0  0
   15.3216   72.8996   -5.1124 C   0  0  1  0  0  0  0  0  0  0  0  0
   15.1095   72.8491   -0.6436 H   0  0  0  0  0  0  0  0  0  0  0  0
   16.6880   74.0351   -0.7327 H   0  0  0  0  0  0  0  0  0  0  0  0
   13.5067   71.1163   -3.0867 H   0  0  0  0  0  0  0  0  0  0  0  0
   14.0175   71.8945   -6.7829 O   0  0  0  0  0  0  0  0  0  0  0  0
   14.0364   74.1734   -6.7084 O   0  0  0  0  0  0  0  0  0  0  0  0
   14.4008   73.0913   -6.2733 C   0  0  0  0  0  0  0  0  0  0  0  0
  1  4  1  0
  1 24  1  0
  1  2  1  6
  1  3  2  0
 25 28  1  0
 25 24  1  0
 25 26  1  6
 25 27  2  0
  6 11  1  0
  6 12  1  0
 29 36  1  0
 29 37  1  0
  9  7  1  6
  7 13  1  0
 10  8  1  6
  8 14  1  0
  4  5  1  0
 36 28  1  6
 33 30  1  1
 30 38  1  0
 34 31  1  1
 31 39  1  0
 35 32  1  6
 32 40  1  0
 41 43  1  0
 15 19  2  0
 42 43  2  0
 16 22  2  0
 12 17  1  1
 17 19  1  0
 17 20  1  0
 18 19  1  0
 18 22  1  0
 18 23  1  0
  9 10  1  0
  9 11  1  0
 10 12  1  0
 11  5  1  1
 33 34  1  0
 33 35  1  0
 34 36  1  0
 35 37  1  0
 37 43  1  6
 20 21  2  0
 21 22  1  0
M  CHG  3   2  -1  26  -1  41  -1
M  END
>  <COMPND>  (49) 
    udp_gluA.pdb 

>  <AUTHOR>  (49) 
    GENERATED BY OPEN BABEL 3.1.1

>  <MASTER>  (49) 
        0    0    0    0    0    0    0    0   56    0   56    0

>  <minimizedAffinity>  (49) 
-6.76737

>  <CNNscore>  (49) 
0.4894159734

>  <CNNaffinity>  (49) 
3.9906525612

>  <CNN_VS>  (49) 
1.9530891180

>  <CNNaffinity_variance>  (49) 
0.9873406291

$$$$
50
     RDKit          3D

 43 45  0  0  0  0  0  0  0  0999 V2000
   15.9238   70.4251   -3.7375 P   0  0  2  0  0  0  0  0  0  0  0  0
   16.1527   68.9399   -4.3378 O   0  0  0  0  0  0  0  0  0  0  0  0
   15.3679   70.4667   -2.3442 O   0  0  0  0  0  0  0  0  0  0  0  0
   15.0392   71.1696   -4.8693 O   0  0  0  0  0  0  0  0  0  0  0  0
   15.6108   72.2635   -5.5631 C   0  0  0  0  0  0  0  0  0  0  0  0
   16.2475   72.8892   -7.7948 O   0  0  0  0  0  0  0  0  0  0  0  0
   14.4896   70.6453   -8.7258 O   0  0  0  0  0  0  0  0  0  0  0  0
   16.9850   69.5598   -8.9019 O   0  0  0  0  0  0  0  0  0  0  0  0
   15.3187   70.7222   -7.5660 C   0  0  1  0  0  0  0  0  0  0  0  0
   16.7759   70.5850   -7.9533 C   0  0  2  0  0  0  0  0  0  0  0  0
   15.2616   72.1504   -7.0415 C   0  0  1  0  0  0  0  0  0  0  0  0
   17.0866   71.9655   -8.5062 C   0  0  2  0  0  0  0  0  0  0  0  0
   14.5101   69.7417   -9.0790 H   0  0  0  0  0  0  0  0  0  0  0  0
   16.7738   68.7011   -8.5018 H   0  0  0  0  0  0  0  0  0  0  0  0
   19.2159   71.1223  -10.1590 O   0  0  0  0  0  0  0  0  0  0  0  0
   22.3143   73.4537   -7.6673 O   0  0  0  0  0  0  0  0  0  0  0  0
   18.4596   72.3372   -8.3122 N   0  0  0  0  0  0  0  0  0  0  0  0
   20.7572   72.2834   -8.9158 N   0  0  0  0  0  0  0  0  0  0  0  0
   19.4525   71.8590   -9.1997 C   0  0  0  0  0  0  0  0  0  0  0  0
   18.8106   73.1672   -7.2545 C   0  0  0  0  0  0  0  0  0  0  0  0
   20.0586   73.5634   -6.9968 C   0  0  0  0  0  0  0  0  0  0  0  0
   21.1554   73.1076   -7.8758 C   0  0  0  0  0  0  0  0  0  0  0  0
   21.4660   71.9617   -9.5187 H   0  0  0  0  0  0  0  0  0  0  0  0
   17.3779   71.1115   -3.9030 O   0  0  0  0  0  0  0  0  0  0  0  0
   18.8653   70.4990   -3.7416 P   0  0  2  0  0  0  0  0  0  0  0  0
   19.2947   70.1638   -5.2660 O   0  0  0  0  0  0  0  0  0  0  0  0
   18.9515   69.3300   -2.8036 O   0  0  0  0  0  0  0  0  0  0  0  0
   19.7840   71.7588   -3.3275 O   0  0  0  0  0  0  0  0  0  0  0  0
   21.7109   72.8661   -4.1460 O   0  0  0  0  0  0  0  0  0  0  0  0
   22.5604   72.5703   -0.1138 O   0  0  0  0  0  0  0  0  0  0  0  0
   21.3618   70.3222   -1.5435 O   0  0  0  0  0  0  0  0  0  0  0  0
   21.7247   75.1140   -1.2462 O   0  0  0  0  0  0  0  0  0  0  0  0
   21.7241   72.7047   -1.2629 C   0  0  2  0  0  0  0  0  0  0  0  0
   21.8968   71.4840   -2.1671 C   0  0  2  0  0  0  0  0  0  0  0  0
   22.1387   73.9783   -2.0032 C   0  0  1  0  0  0  0  0  0  0  0  0
   21.1972   71.6949   -3.5106 C   0  0  1  0  0  0  0  0  0  0  0  0
   21.4968   74.0531   -3.3856 C   0  0  1  0  0  0  0  0  0  0  0  0
   22.3153   71.7675    0.3726 H   0  0  0  0  0  0  0  0  0  0  0  0
   21.8010   70.1825   -0.6902 H   0  0  0  0  0  0  0  0  0  0  0  0
   22.1263   75.0784   -0.3639 H   0  0  0  0  0  0  0  0  0  0  0  0
   21.5209   76.2982   -4.0641 O   0  0  0  0  0  0  0  0  0  0  0  0
   23.1218   74.9301   -4.9385 O   0  0  0  0  0  0  0  0  0  0  0  0
   22.1511   75.1074   -4.2179 C   0  0  0  0  0  0  0  0  0  0  0  0
  1  4  1  0
  1 24  1  0
  1  2  1  6
  1  3  2  0
 25 28  1  0
 25 24  1  0
 25 26  1  6
 25 27  2  0
  6 11  1  0
  6 12  1  0
 29 36  1  0
 29 37  1  0
  9  7  1  6
  7 13  1  0
 10  8  1  6
  8 14  1  0
  4  5  1  0
 36 28  1  1
 33 30  1  1
 30 38  1  0
 34 31  1  1
 31 39  1  0
 35 32  1  1
 32 40  1  0
 41 43  1  0
 15 19  2  0
 42 43  2  0
 16 22  2  0
 12 17  1  1
 17 19  1  0
 17 20  1  0
 18 19  1  0
 18 22  1  0
 18 23  1  0
  9 10  1  0
  9 11  1  0
 10 12  1  0
 11  5  1  1
 33 34  1  0
 33 35  1  0
 34 36  1  0
 35 37  1  0
 37 43  1  6
 20 21  2  0
 21 22  1  0
M  CHG  3   2  -1  26  -1  41  -1
M  END
>  <COMPND>  (50) 
    udp_gluA.pdb 

>  <AUTHOR>  (50) 
    GENERATED BY OPEN BABEL 3.1.1

>  <MASTER>  (50) 
        0    0    0    0    0    0    0    0   56    0   56    0

>  <minimizedAffinity>  (50) 
-8.12839

>  <CNNscore>  (50) 
0.4884113669

>  <CNNaffinity>  (50) 
4.2701787949

>  <CNN_VS>  (50) 
2.0856039524

>  <CNNaffinity_variance>  (50) 
0.4253831804

$$$$
51
     RDKit          3D

 43 45  0  0  0  0  0  0  0  0999 V2000
   19.9676   72.7370   -5.2597 P   0  0  2  0  0  0  0  0  0  0  0  0
   18.8533   73.6099   -4.4754 O   0  0  0  0  0  0  0  0  0  0  0  0
   20.9022   73.5318   -6.1237 O   0  0  0  0  0  0  0  0  0  0  0  0
   19.1049   71.5985   -6.0198 O   0  0  0  0  0  0  0  0  0  0  0  0
   18.5326   71.9105   -7.2767 C   0  0  0  0  0  0  0  0  0  0  0  0
   17.5130   69.7728   -6.8662 O   0  0  0  0  0  0  0  0  0  0  0  0
   16.7877   69.7685   -9.7757 O   0  0  0  0  0  0  0  0  0  0  0  0
   14.4499   70.5038   -8.5800 O   0  0  0  0  0  0  0  0  0  0  0  0
   16.8387   70.8617   -8.8588 C   0  0  1  0  0  0  0  0  0  0  0  0
   15.6572   70.8084   -7.9135 C   0  0  2  0  0  0  0  0  0  0  0  0
   18.0116   70.6298   -7.9161 C   0  0  1  0  0  0  0  0  0  0  0  0
   16.0796   69.7197   -6.9418 C   0  0  2  0  0  0  0  0  0  0  0  0
   16.0459   69.8943  -10.3885 H   0  0  0  0  0  0  0  0  0  0  0  0
   14.2240   71.2270   -9.1865 H   0  0  0  0  0  0  0  0  0  0  0  0
   14.7507   67.7228   -5.4508 O   0  0  0  0  0  0  0  0  0  0  0  0
   14.0313   70.5868   -1.9118 O   0  0  0  0  0  0  0  0  0  0  0  0
   15.5351   69.9164   -5.6281 N   0  0  0  0  0  0  0  0  0  0  0  0
   14.3928   69.1514   -3.6900 N   0  0  0  0  0  0  0  0  0  0  0  0
   14.8863   68.8476   -4.9656 C   0  0  0  0  0  0  0  0  0  0  0  0
   15.6477   71.1554   -5.0090 C   0  0  0  0  0  0  0  0  0  0  0  0
   15.1723   71.4298   -3.7927 C   0  0  0  0  0  0  0  0  0  0  0  0
   14.4800   70.3682   -3.0331 C   0  0  0  0  0  0  0  0  0  0  0  0
   13.9353   68.4237   -3.2100 H   0  0  0  0  0  0  0  0  0  0  0  0
   20.6872   71.9134   -4.0695 O   0  0  0  0  0  0  0  0  0  0  0  0
   20.0856   71.2487   -2.7241 P   0  0  2  0  0  0  0  0  0  0  0  0
   21.1581   70.0880   -2.3735 O   0  0  0  0  0  0  0  0  0  0  0  0
   18.6708   70.7640   -2.8563 O   0  0  0  0  0  0  0  0  0  0  0  0
   20.3066   72.3658   -1.5815 O   0  0  0  0  0  0  0  0  0  0  0  0
   20.5633   74.7138   -1.7562 O   0  0  0  0  0  0  0  0  0  0  0  0
   22.9481   73.8475    1.5043 O   0  0  0  0  0  0  0  0  0  0  0  0
   22.9800   72.1231   -0.8536 O   0  0  0  0  0  0  0  0  0  0  0  0
   20.3388   75.0700    1.8887 O   0  0  0  0  0  0  0  0  0  0  0  0
   21.8416   73.6802    0.6179 C   0  0  2  0  0  0  0  0  0  0  0  0
   22.3552   73.4001   -0.7946 C   0  0  2  0  0  0  0  0  0  0  0  0
   21.0194   74.9707    0.6391 C   0  0  1  0  0  0  0  0  0  0  0  0
   21.2130   73.4432   -1.8106 C   0  0  1  0  0  0  0  0  0  0  0  0
   19.9850   74.9907   -0.4826 C   0  0  1  0  0  0  0  0  0  0  0  0
   23.4852   73.0396    1.5073 H   0  0  0  0  0  0  0  0  0  0  0  0
   23.7056   72.0886   -0.2112 H   0  0  0  0  0  0  0  0  0  0  0  0
   20.9859   75.0582    2.6112 H   0  0  0  0  0  0  0  0  0  0  0  0
   18.5537   76.3930   -1.7018 O   0  0  0  0  0  0  0  0  0  0  0  0
   19.6996   77.3306    0.0323 O   0  0  0  0  0  0  0  0  0  0  0  0
   19.4225   76.3633   -0.6610 C   0  0  0  0  0  0  0  0  0  0  0  0
  1  4  1  0
  1 24  1  0
  1  2  1  1
  1  3  2  0
 25 28  1  0
 25 24  1  0
 25 26  1  1
 25 27  2  0
  6 11  1  0
  6 12  1  0
 29 36  1  0
 29 37  1  0
  9  7  1  6
  7 13  1  0
 10  8  1  6
  8 14  1  0
  4  5  1  0
 36 28  1  1
 33 30  1  1
 30 38  1  0
 34 31  1  1
 31 39  1  0
 35 32  1  1
 32 40  1  0
 41 43  1  0
 15 19  2  0
 42 43  2  0
 16 22  2  0
 12 17  1  1
 17 19  1  0
 17 20  1  0
 18 19  1  0
 18 22  1  0
 18 23  1  0
  9 10  1  0
  9 11  1  0
 10 12  1  0
 11  5  1  1
 33 34  1  0
 33 35  1  0
 34 36  1  0
 35 37  1  0
 37 43  1  6
 20 21  2  0
 21 22  1  0
M  CHG  3   2  -1  26  -1  41  -1
M  END
>  <COMPND>  (51) 
    udp_gluA.pdb 

>  <AUTHOR>  (51) 
    GENERATED BY OPEN BABEL 3.1.1

>  <MASTER>  (51) 
        0    0    0    0    0    0    0    0   56    0   56    0

>  <minimizedAffinity>  (51) 
-7.01816

>  <CNNscore>  (51) 
0.4763182998

>  <CNNaffinity>  (51) 
4.1788244247

>  <CNN_VS>  (51) 
1.9904505014

>  <CNNaffinity_variance>  (51) 
0.3450870812

$$$$
52
     RDKit          3D

 43 45  0  0  0  0  0  0  0  0999 V2000
   16.2783   70.6187   -3.5064 P   0  0  2  0  0  0  0  0  0  0  0  0
   16.4829   69.1668   -4.1911 O   0  0  0  0  0  0  0  0  0  0  0  0
   15.6249   70.5958   -2.1557 O   0  0  0  0  0  0  0  0  0  0  0  0
   15.5130   71.4797   -4.6426 O   0  0  0  0  0  0  0  0  0  0  0  0
   16.2447   71.9006   -5.7792 C   0  0  0  0  0  0  0  0  0  0  0  0
   14.5171   72.0474   -7.4440 O   0  0  0  0  0  0  0  0  0  0  0  0
   16.1922   70.1740   -9.0799 O   0  0  0  0  0  0  0  0  0  0  0  0
   16.7322   72.5966  -10.2091 O   0  0  0  0  0  0  0  0  0  0  0  0
   16.6039   71.2250   -8.2056 C   0  0  1  0  0  0  0  0  0  0  0  0
   16.3510   72.5717   -8.8495 C   0  0  2  0  0  0  0  0  0  0  0  0
   15.6468   71.2532   -7.0217 C   0  0  1  0  0  0  0  0  0  0  0  0
   14.8528   72.7361   -8.6591 C   0  0  2  0  0  0  0  0  0  0  0  0
   16.7889   70.1364   -9.8442 H   0  0  0  0  0  0  0  0  0  0  0  0
   17.6943   72.4886  -10.2772 H   0  0  0  0  0  0  0  0  0  0  0  0
   12.2721   73.7209   -9.2476 O   0  0  0  0  0  0  0  0  0  0  0  0
   13.4719   78.0362   -8.1602 O   0  0  0  0  0  0  0  0  0  0  0  0
   14.4635   74.1126   -8.5385 N   0  0  0  0  0  0  0  0  0  0  0  0
   12.8724   75.8694   -8.7064 N   0  0  0  0  0  0  0  0  0  0  0  0
   13.1419   74.5030   -8.8595 C   0  0  0  0  0  0  0  0  0  0  0  0
   15.3846   75.0585   -8.1053 C   0  0  0  0  0  0  0  0  0  0  0  0
   15.1129   76.3574   -7.9642 C   0  0  0  0  0  0  0  0  0  0  0  0
   13.7553   76.8481   -8.2796 C   0  0  0  0  0  0  0  0  0  0  0  0
   11.9594   76.1655   -8.9259 H   0  0  0  0  0  0  0  0  0  0  0  0
   17.7701   71.2408   -3.5222 O   0  0  0  0  0  0  0  0  0  0  0  0
   19.2156   70.5291   -3.6548 P   0  0  2  0  0  0  0  0  0  0  0  0
   19.3839   70.3283   -5.2522 O   0  0  0  0  0  0  0  0  0  0  0  0
   19.3560   69.2665   -2.8547 O   0  0  0  0  0  0  0  0  0  0  0  0
   20.2766   71.6835   -3.2755 O   0  0  0  0  0  0  0  0  0  0  0  0
   22.3245   72.4135   -4.2148 O   0  0  0  0  0  0  0  0  0  0  0  0
   23.1033   72.7082   -0.1682 O   0  0  0  0  0  0  0  0  0  0  0  0
   21.6646   70.4003   -1.2351 O   0  0  0  0  0  0  0  0  0  0  0  0
   22.5751   75.1021   -1.7306 O   0  0  0  0  0  0  0  0  0  0  0  0
   22.2969   72.7400   -1.3458 C   0  0  2  0  0  0  0  0  0  0  0  0
   22.3347   71.3727   -2.0289 C   0  0  2  0  0  0  0  0  0  0  0  0
   22.8612   73.8158   -2.2765 C   0  0  1  0  0  0  0  0  0  0  0  0
   21.6744   71.4314   -3.4072 C   0  0  1  0  0  0  0  0  0  0  0  0
   22.2428   73.7281   -3.6688 C   0  0  1  0  0  0  0  0  0  0  0  0
   22.7636   72.0315    0.4384 H   0  0  0  0  0  0  0  0  0  0  0  0
   22.0782   70.3580   -0.3590 H   0  0  0  0  0  0  0  0  0  0  0  0
   22.9631   75.1709   -0.8443 H   0  0  0  0  0  0  0  0  0  0  0  0
   24.3230   74.6249   -4.2773 O   0  0  0  0  0  0  0  0  0  0  0  0
   22.5558   75.0743   -5.6464 O   0  0  0  0  0  0  0  0  0  0  0  0
   23.0206   74.5467   -4.6471 C   0  0  0  0  0  0  0  0  0  0  0  0
  1  4  1  0
  1 24  1  0
  1  2  1  6
  1  3  2  0
 25 28  1  0
 25 24  1  0
 25 26  1  6
 25 27  2  0
  6 11  1  0
  6 12  1  0
 29 36  1  0
 29 37  1  0
  9  7  1  6
  7 13  1  0
 10  8  1  6
  8 14  1  0
  4  5  1  0
 36 28  1  1
 33 30  1  1
 30 38  1  0
 34 31  1  1
 31 39  1  0
 35 32  1  1
 32 40  1  0
 41 43  1  0
 15 19  2  0
 42 43  2  0
 16 22  2  0
 12 17  1  1
 17 19  1  0
 17 20  1  0
 18 19  1  0
 18 22  1  0
 18 23  1  0
  9 10  1  0
  9 11  1  0
 10 12  1  0
 11  5  1  1
 33 34  1  0
 33 35  1  0
 34 36  1  0
 35 37  1  0
 37 43  1  6
 20 21  2  0
 21 22  1  0
M  CHG  3   2  -1  26  -1  41  -1
M  END
>  <COMPND>  (52) 
    udp_gluA.pdb 

>  <AUTHOR>  (52) 
    GENERATED BY OPEN BABEL 3.1.1

>  <MASTER>  (52) 
        0    0    0    0    0    0    0    0   56    0   56    0

>  <minimizedAffinity>  (52) 
-7.36777

>  <CNNscore>  (52) 
0.4675368071

>  <CNNaffinity>  (52) 
4.3386931419

>  <CNN_VS>  (52) 
2.0284986496

>  <CNNaffinity_variance>  (52) 
0.0794149786

$$$$
53
     RDKit          3D

 43 45  0  0  0  0  0  0  0  0999 V2000
   20.8203   71.8290   -2.2161 P   0  0  2  0  0  0  0  0  0  0  0  0
   21.4720   72.1265   -3.6672 O   0  0  0  0  0  0  0  0  0  0  0  0
   21.2739   70.5544   -1.5670 O   0  0  0  0  0  0  0  0  0  0  0  0
   19.2279   71.9595   -2.4712 O   0  0  0  0  0  0  0  0  0  0  0  0
   18.7335   71.7487   -3.7810 C   0  0  0  0  0  0  0  0  0  0  0  0
   16.6817   71.7880   -5.0326 O   0  0  0  0  0  0  0  0  0  0  0  0
   15.5036   70.1753   -2.7959 O   0  0  0  0  0  0  0  0  0  0  0  0
   15.9937   68.2852   -4.6994 O   0  0  0  0  0  0  0  0  0  0  0  0
   16.8199   70.1294   -3.3472 C   0  0  1  0  0  0  0  0  0  0  0  0
   16.7989   69.4454   -4.6977 C   0  0  2  0  0  0  0  0  0  0  0  0
   17.2246   71.5501   -3.7158 C   0  0  1  0  0  0  0  0  0  0  0  0
   16.2496   70.5397   -5.5970 C   0  0  2  0  0  0  0  0  0  0  0  0
   15.2231   69.2788   -2.5527 H   0  0  0  0  0  0  0  0  0  0  0  0
   16.3856   67.6188   -4.1126 H   0  0  0  0  0  0  0  0  0  0  0  0
   14.6060   70.2674   -7.8775 O   0  0  0  0  0  0  0  0  0  0  0  0
   18.2405   70.1697  -10.7104 O   0  0  0  0  0  0  0  0  0  0  0  0
   16.7401   70.4410   -6.9425 N   0  0  0  0  0  0  0  0  0  0  0  0
   16.4178   70.2180   -9.2862 N   0  0  0  0  0  0  0  0  0  0  0  0
   15.8298   70.3067   -8.0175 C   0  0  0  0  0  0  0  0  0  0  0  0
   18.1075   70.4791   -7.1869 C   0  0  0  0  0  0  0  0  0  0  0  0
   18.6529   70.3936   -8.4017 C   0  0  0  0  0  0  0  0  0  0  0  0
   17.7716   70.2505   -9.5791 C   0  0  0  0  0  0  0  0  0  0  0  0
   15.8042   70.1218  -10.0501 H   0  0  0  0  0  0  0  0  0  0  0  0
   21.1656   73.1696   -1.3815 O   0  0  0  0  0  0  0  0  0  0  0  0
   22.5324   73.6512   -0.6648 P   0  0  2  0  0  0  0  0  0  0  0  0
   23.2575   74.5375   -1.8089 O   0  0  0  0  0  0  0  0  0  0  0  0
   23.3730   72.5302   -0.1256 O   0  0  0  0  0  0  0  0  0  0  0  0
   22.0580   74.7245    0.4421 O   0  0  0  0  0  0  0  0  0  0  0  0
   21.5944   74.2840    2.7225 O   0  0  0  0  0  0  0  0  0  0  0  0
   19.2156   77.5843    2.0034 O   0  0  0  0  0  0  0  0  0  0  0  0
   19.3998   75.4342    0.0342 O   0  0  0  0  0  0  0  0  0  0  0  0
   21.6930   77.8690    3.4975 O   0  0  0  0  0  0  0  0  0  0  0  0
   20.3549   76.7392    1.8428 C   0  0  2  0  0  0  0  0  0  0  0  0
   19.9048   75.3593    1.3623 C   0  0  2  0  0  0  0  0  0  0  0  0
   21.0562   76.6282    3.1984 C   0  0  1  0  0  0  0  0  0  0  0  0
   21.0639   74.3624    1.3989 C   0  0  1  0  0  0  0  0  0  0  0  0
   22.1127   75.5272    3.1905 C   0  0  1  0  0  0  0  0  0  0  0  0
   18.7538   77.6696    1.1544 H   0  0  0  0  0  0  0  0  0  0  0  0
   18.6641   76.0653    0.0036 H   0  0  0  0  0  0  0  0  0  0  0  0
   21.0315   78.5783    3.5054 H   0  0  0  0  0  0  0  0  0  0  0  0
   23.3522   74.1091    4.5884 O   0  0  0  0  0  0  0  0  0  0  0  0
   22.2430   75.8371    5.5797 O   0  0  0  0  0  0  0  0  0  0  0  0
   22.5532   75.2047    4.5813 C   0  0  0  0  0  0  0  0  0  0  0  0
  1  4  1  0
  1 24  1  0
  1  2  1  6
  1  3  2  0
 25 28  1  0
 25 24  1  0
 25 26  1  6
 25 27  2  0
  6 11  1  0
  6 12  1  0
 29 36  1  0
 29 37  1  0
  9  7  1  6
  7 13  1  0
 10  8  1  1
  8 14  1  0
  4  5  1  0
 36 28  1  6
 33 30  1  1
 30 38  1  0
 34 31  1  6
 31 39  1  0
 35 32  1  6
 32 40  1  0
 41 43  1  0
 15 19  2  0
 42 43  2  0
 16 22  2  0
 12 17  1  6
 17 19  1  0
 17 20  1  0
 18 19  1  0
 18 22  1  0
 18 23  1  0
  9 10  1  0
  9 11  1  0
 10 12  1  0
 11  5  1  6
 33 34  1  0
 33 35  1  0
 34 36  1  0
 35 37  1  0
 37 43  1  1
 20 21  2  0
 21 22  1  0
M  CHG  3   2  -1  26  -1  41  -1
M  END
>  <COMPND>  (53) 
    udp_gluA.pdb 

>  <AUTHOR>  (53) 
    GENERATED BY OPEN BABEL 3.1.1

>  <MASTER>  (53) 
        0    0    0    0    0    0    0    0   56    0   56    0

>  <minimizedAffinity>  (53) 
-7.09508

>  <CNNscore>  (53) 
0.4635789394

>  <CNNaffinity>  (53) 
4.2682318687

>  <CNN_VS>  (53) 
1.9786623716

>  <CNNaffinity_variance>  (53) 
0.0317897722

$$$$
54
     RDKit          3D

 43 45  0  0  0  0  0  0  0  0999 V2000
   21.2697   71.4380   -2.1396 P   0  0  2  0  0  0  0  0  0  0  0  0
   22.3093   71.3043   -3.3726 O   0  0  0  0  0  0  0  0  0  0  0  0
   21.8997   71.4452   -0.7776 O   0  0  0  0  0  0  0  0  0  0  0  0
   20.1932   70.2606   -2.4095 O   0  0  0  0  0  0  0  0  0  0  0  0
   19.4984   70.2496   -3.6431 C   0  0  0  0  0  0  0  0  0  0  0  0
   17.6580   71.4332   -4.6379 O   0  0  0  0  0  0  0  0  0  0  0  0
   15.9695   70.2707   -2.4496 O   0  0  0  0  0  0  0  0  0  0  0  0
   15.3785   68.6666   -4.5741 O   0  0  0  0  0  0  0  0  0  0  0  0
   17.0666   69.6861   -3.1518 C   0  0  1  0  0  0  0  0  0  0  0  0
   16.6437   69.2937   -4.5516 C   0  0  2  0  0  0  0  0  0  0  0  0
   18.0883   70.7820   -3.4230 C   0  0  1  0  0  0  0  0  0  0  0  0
   16.6454   70.6330   -5.2686 C   0  0  2  0  0  0  0  0  0  0  0  0
   15.3035   69.5895   -2.2650 H   0  0  0  0  0  0  0  0  0  0  0  0
   15.4298   67.8183   -4.1054 H   0  0  0  0  0  0  0  0  0  0  0  0
   14.7270   70.1647   -7.2878 O   0  0  0  0  0  0  0  0  0  0  0  0
   17.9388   70.1653  -10.5936 O   0  0  0  0  0  0  0  0  0  0  0  0
   16.9528   70.5066   -6.6652 N   0  0  0  0  0  0  0  0  0  0  0  0
   16.3286   70.1644   -8.9322 N   0  0  0  0  0  0  0  0  0  0  0  0
   15.9150   70.2717   -7.5979 C   0  0  0  0  0  0  0  0  0  0  0  0
   18.2685   70.6166   -7.0985 C   0  0  0  0  0  0  0  0  0  0  0  0
   18.6473   70.5122   -8.3738 C   0  0  0  0  0  0  0  0  0  0  0  0
   17.6246   70.2660   -9.4115 C   0  0  0  0  0  0  0  0  0  0  0  0
   15.6241   69.9989   -9.5997 H   0  0  0  0  0  0  0  0  0  0  0  0
   20.4426   72.7776   -2.5059 O   0  0  0  0  0  0  0  0  0  0  0  0
   20.9222   74.3146   -2.6516 P   0  0  2  0  0  0  0  0  0  0  0  0
   22.5339   74.2111   -2.5424 O   0  0  0  0  0  0  0  0  0  0  0  0
   20.2943   75.2522   -1.6614 O   0  0  0  0  0  0  0  0  0  0  0  0
   20.6418   74.6862   -4.1962 O   0  0  0  0  0  0  0  0  0  0  0  0
   19.1518   73.8099   -5.8152 O   0  0  0  0  0  0  0  0  0  0  0  0
   22.4803   74.6614   -8.1096 O   0  0  0  0  0  0  0  0  0  0  0  0
   22.7726   73.4359   -5.4739 O   0  0  0  0  0  0  0  0  0  0  0  0
   20.1493   76.3949   -8.2204 O   0  0  0  0  0  0  0  0  0  0  0  0
   21.5577   74.8405   -7.0350 C   0  0  2  0  0  0  0  0  0  0  0  0
   21.5370   73.5844   -6.1636 C   0  0  2  0  0  0  0  0  0  0  0  0
   20.1738   75.0935   -7.6371 C   0  0  1  0  0  0  0  0  0  0  0  0
   20.4006   73.6460   -5.1420 C   0  0  1  0  0  0  0  0  0  0  0  0
   19.0811   75.0145   -6.5748 C   0  0  1  0  0  0  0  0  0  0  0  0
   23.3671   74.4990   -7.7510 H   0  0  0  0  0  0  0  0  0  0  0  0
   23.4982   73.3964   -6.1160 H   0  0  0  0  0  0  0  0  0  0  0  0
   20.8402   76.4585   -8.8982 H   0  0  0  0  0  0  0  0  0  0  0  0
   16.8632   74.2712   -6.4026 O   0  0  0  0  0  0  0  0  0  0  0  0
   17.4383   75.3978   -8.2998 O   0  0  0  0  0  0  0  0  0  0  0  0
   17.7304   74.9329   -7.2082 C   0  0  0  0  0  0  0  0  0  0  0  0
  1  4  1  0
  1 24  1  0
  1  2  1  6
  1  3  2  0
 25 28  1  0
 25 24  1  0
 25 26  1  6
 25 27  2  0
  6 11  1  0
  6 12  1  0
 29 36  1  0
 29 37  1  0
  9  7  1  1
  7 13  1  0
 10  8  1  1
  8 14  1  0
  4  5  1  0
 36 28  1  1
 33 30  1  6
 30 38  1  0
 34 31  1  1
 31 39  1  0
 35 32  1  1
 32 40  1  0
 41 43  1  0
 15 19  2  0
 42 43  2  0
 16 22  2  0
 12 17  1  6
 17 19  1  0
 17 20  1  0
 18 19  1  0
 18 22  1  0
 18 23  1  0
  9 10  1  0
  9 11  1  0
 10 12  1  0
 11  5  1  6
 33 34  1  0
 33 35  1  0
 34 36  1  0
 35 37  1  0
 37 43  1  6
 20 21  2  0
 21 22  1  0
M  CHG  3   2  -1  26  -1  41  -1
M  END
>  <COMPND>  (54) 
    udp_gluA.pdb 

>  <AUTHOR>  (54) 
    GENERATED BY OPEN BABEL 3.1.1

>  <MASTER>  (54) 
        0    0    0    0    0    0    0    0   56    0   56    0

>  <minimizedAffinity>  (54) 
-7.56804

>  <CNNscore>  (54) 
0.4541468024

>  <CNNaffinity>  (54) 
4.0772590637

>  <CNN_VS>  (54) 
1.8516741991

>  <CNNaffinity_variance>  (54) 
0.7857915163

$$$$
55
     RDKit          3D

 43 45  0  0  0  0  0  0  0  0999 V2000
   20.4154   73.9357   -4.7730 P   0  0  2  0  0  0  0  0  0  0  0  0
   21.3381   72.9564   -5.6722 O   0  0  0  0  0  0  0  0  0  0  0  0
   21.1220   75.1363   -4.2152 O   0  0  0  0  0  0  0  0  0  0  0  0
   19.7454   72.9454   -3.6828 O   0  0  0  0  0  0  0  0  0  0  0  0
   19.3631   71.6460   -4.0947 C   0  0  0  0  0  0  0  0  0  0  0  0
   17.1503   71.6586   -5.0333 O   0  0  0  0  0  0  0  0  0  0  0  0
   16.3161   70.0972   -2.6131 O   0  0  0  0  0  0  0  0  0  0  0  0
   16.5274   68.1646   -4.5253 O   0  0  0  0  0  0  0  0  0  0  0  0
   17.5377   70.0380   -3.3498 C   0  0  1  0  0  0  0  0  0  0  0  0
   17.3212   69.3241   -4.6672 C   0  0  2  0  0  0  0  0  0  0  0  0
   17.8805   71.4499   -3.8051 C   0  0  1  0  0  0  0  0  0  0  0  0
   16.6435   70.3984   -5.5005 C   0  0  2  0  0  0  0  0  0  0  0  0
   16.0765   69.2065   -2.3116 H   0  0  0  0  0  0  0  0  0  0  0  0
   17.0026   67.5113   -3.9875 H   0  0  0  0  0  0  0  0  0  0  0  0
   14.6901   70.4209   -7.5402 O   0  0  0  0  0  0  0  0  0  0  0  0
   17.8659   69.8950  -10.8391 O   0  0  0  0  0  0  0  0  0  0  0  0
   16.9322   70.2692   -6.9008 N   0  0  0  0  0  0  0  0  0  0  0  0
   16.2736   70.1579   -9.1812 N   0  0  0  0  0  0  0  0  0  0  0  0
   15.8777   70.2928   -7.8440 C   0  0  0  0  0  0  0  0  0  0  0  0
   18.2465   70.1229   -7.3274 C   0  0  0  0  0  0  0  0  0  0  0  0
   18.6084   69.9956   -8.6055 C   0  0  0  0  0  0  0  0  0  0  0  0
   17.5674   70.0093   -9.6541 C   0  0  0  0  0  0  0  0  0  0  0  0
   15.5568   70.1694   -9.8561 H   0  0  0  0  0  0  0  0  0  0  0  0
   19.1815   74.2785   -5.7593 O   0  0  0  0  0  0  0  0  0  0  0  0
   18.4616   75.6829   -6.1100 P   0  0  2  0  0  0  0  0  0  0  0  0
   19.5127   76.3971   -7.1127 O   0  0  0  0  0  0  0  0  0  0  0  0
   18.0972   76.5052   -4.9080 O   0  0  0  0  0  0  0  0  0  0  0  0
   17.2131   75.2795   -7.0487 O   0  0  0  0  0  0  0  0  0  0  0  0
   15.5497   73.5973   -7.1593 O   0  0  0  0  0  0  0  0  0  0  0  0
   16.8923   73.7099  -11.0648 O   0  0  0  0  0  0  0  0  0  0  0  0
   18.7848   73.8498   -8.8437 O   0  0  0  0  0  0  0  0  0  0  0  0
   14.3424   74.9169  -10.3629 O   0  0  0  0  0  0  0  0  0  0  0  0
   16.5807   74.2438   -9.7780 C   0  0  2  0  0  0  0  0  0  0  0  0
   17.4061   73.5235   -8.7115 C   0  0  2  0  0  0  0  0  0  0  0  0
   15.0860   74.0318   -9.5273 C   0  0  1  0  0  0  0  0  0  0  0  0
   16.9366   73.9041   -7.3067 C   0  0  1  0  0  0  0  0  0  0  0  0
   14.7199   74.3117   -8.0726 C   0  0  1  0  0  0  0  0  0  0  0  0
   17.8374   73.8332  -11.2460 H   0  0  0  0  0  0  0  0  0  0  0  0
   19.0893   73.6112   -9.7329 H   0  0  0  0  0  0  0  0  0  0  0  0
   14.5664   74.7492  -11.2917 H   0  0  0  0  0  0  0  0  0  0  0  0
   13.2499   73.4798   -6.4451 O   0  0  0  0  0  0  0  0  0  0  0  0
   12.4484   73.6692   -8.5713 O   0  0  0  0  0  0  0  0  0  0  0  0
   13.3537   73.7937   -7.7603 C   0  0  0  0  0  0  0  0  0  0  0  0
  1  4  1  0
  1 24  1  0
  1  2  1  6
  1  3  2  0
 25 28  1  0
 25 24  1  0
 25 26  1  6
 25 27  2  0
  6 11  1  0
  6 12  1  0
 29 36  1  0
 29 37  1  0
  9  7  1  1
  7 13  1  0
 10  8  1  1
  8 14  1  0
  4  5  1  0
 36 28  1  6
 33 30  1  6
 30 38  1  0
 34 31  1  1
 31 39  1  0
 35 32  1  6
 32 40  1  0
 41 43  1  0
 15 19  2  0
 42 43  2  0
 16 22  2  0
 12 17  1  6
 17 19  1  0
 17 20  1  0
 18 19  1  0
 18 22  1  0
 18 23  1  0
  9 10  1  0
  9 11  1  0
 10 12  1  0
 11  5  1  6
 33 34  1  0
 33 35  1  0
 34 36  1  0
 35 37  1  0
 37 43  1  6
 20 21  2  0
 21 22  1  0
M  CHG  3   2  -1  26  -1  41  -1
M  END
>  <COMPND>  (55) 
    udp_gluA.pdb 

>  <AUTHOR>  (55) 
    GENERATED BY OPEN BABEL 3.1.1

>  <MASTER>  (55) 
        0    0    0    0    0    0    0    0   56    0   56    0

>  <minimizedAffinity>  (55) 
-6.23728

>  <CNNscore>  (55) 
0.4332097769

>  <CNNaffinity>  (55) 
4.0570397377

>  <CNN_VS>  (55) 
1.7575492859

>  <CNNaffinity_variance>  (55) 
0.7892485261

$$$$
56
     RDKit          3D

 43 45  0  0  0  0  0  0  0  0999 V2000
   18.0230   75.0781   -6.3160 P   0  0  2  0  0  0  0  0  0  0  0  0
   18.7812   75.1721   -7.7426 O   0  0  0  0  0  0  0  0  0  0  0  0
   16.5515   74.7957   -6.3979 O   0  0  0  0  0  0  0  0  0  0  0  0
   18.4341   76.4518   -5.5663 O   0  0  0  0  0  0  0  0  0  0  0  0
   18.8145   76.3908   -4.2039 C   0  0  0  0  0  0  0  0  0  0  0  0
   20.8970   76.3416   -3.0045 O   0  0  0  0  0  0  0  0  0  0  0  0
   22.0082   78.0068   -5.2369 O   0  0  0  0  0  0  0  0  0  0  0  0
   22.9237   75.5106   -5.8428 O   0  0  0  0  0  0  0  0  0  0  0  0
   21.0464   76.9528   -5.2881 C   0  0  1  0  0  0  0  0  0  0  0  0
   21.7264   75.6131   -5.1009 C   0  0  2  0  0  0  0  0  0  0  0  0
   20.1793   77.0472   -4.0400 C   0  0  1  0  0  0  0  0  0  0  0  0
   21.9639   75.5869   -3.6006 C   0  0  2  0  0  0  0  0  0  0  0  0
   22.5741   77.9670   -6.0242 H   0  0  0  0  0  0  0  0  0  0  0  0
   22.7192   75.5317   -6.7913 H   0  0  0  0  0  0  0  0  0  0  0  0
   23.7254   73.5284   -4.3985 O   0  0  0  0  0  0  0  0  0  0  0  0
   21.8133   70.5130   -1.4839 O   0  0  0  0  0  0  0  0  0  0  0  0
   21.9485   74.2544   -3.0666 N   0  0  0  0  0  0  0  0  0  0  0  0
   22.7707   72.0283   -2.9468 N   0  0  0  0  0  0  0  0  0  0  0  0
   22.8765   73.2950   -3.5361 C   0  0  0  0  0  0  0  0  0  0  0  0
   21.0234   73.9099   -2.0886 C   0  0  0  0  0  0  0  0  0  0  0  0
   20.9348   72.6983   -1.5363 C   0  0  0  0  0  0  0  0  0  0  0  0
   21.8673   71.6379   -1.9716 C   0  0  0  0  0  0  0  0  0  0  0  0
   23.4050   71.3430   -3.2590 H   0  0  0  0  0  0  0  0  0  0  0  0
   18.8800   73.9606   -5.5225 O   0  0  0  0  0  0  0  0  0  0  0  0
   19.7466   72.7069   -6.0618 P   0  0  2  0  0  0  0  0  0  0  0  0
   19.8635   71.7510   -4.7607 O   0  0  0  0  0  0  0  0  0  0  0  0
   21.0653   73.0864   -6.6709 O   0  0  0  0  0  0  0  0  0  0  0  0
   18.7512   71.9194   -7.0575 O   0  0  0  0  0  0  0  0  0  0  0  0
   17.1999   70.4059   -6.1027 O   0  0  0  0  0  0  0  0  0  0  0  0
   17.0529   69.3533  -10.0950 O   0  0  0  0  0  0  0  0  0  0  0  0
   19.6109   69.9390   -8.8111 O   0  0  0  0  0  0  0  0  0  0  0  0
   14.8945   70.9015   -8.9138 O   0  0  0  0  0  0  0  0  0  0  0  0
   17.2095   70.2378   -8.9854 C   0  0  2  0  0  0  0  0  0  0  0  0
   18.3792   69.7698   -8.1191 C   0  0  2  0  0  0  0  0  0  0  0  0
   15.9091   70.2195   -8.1789 C   0  0  1  0  0  0  0  0  0  0  0  0
   18.4343   70.5516   -6.8058 C   0  0  1  0  0  0  0  0  0  0  0  0
   16.0811   70.9099   -6.8290 C   0  0  1  0  0  0  0  0  0  0  0  0
   17.8673   69.3485  -10.6223 H   0  0  0  0  0  0  0  0  0  0  0  0
   19.5828   69.4458   -9.6456 H   0  0  0  0  0  0  0  0  0  0  0  0
   14.7753   70.4720   -9.7753 H   0  0  0  0  0  0  0  0  0  0  0  0
   14.2117   69.5583   -6.4044 O   0  0  0  0  0  0  0  0  0  0  0  0
   14.6668   71.2074   -4.8969 O   0  0  0  0  0  0  0  0  0  0  0  0
   14.9301   70.6044   -5.9265 C   0  0  0  0  0  0  0  0  0  0  0  0
  1  4  1  0
  1 24  1  0
  1  2  1  6
  1  3  2  0
 25 28  1  0
 25 24  1  0
 25 26  1  1
 25 27  2  0
  6 11  1  0
  6 12  1  0
 29 36  1  0
 29 37  1  0
  9  7  1  1
  7 13  1  0
 10  8  1  6
  8 14  1  0
  4  5  1  0
 36 28  1  6
 33 30  1  6
 30 38  1  0
 34 31  1  6
 31 39  1  0
 35 32  1  6
 32 40  1  0
 41 43  1  0
 15 19  2  0
 42 43  2  0
 16 22  2  0
 12 17  1  1
 17 19  1  0
 17 20  1  0
 18 19  1  0
 18 22  1  0
 18 23  1  0
  9 10  1  0
  9 11  1  0
 10 12  1  0
 11  5  1  6
 33 34  1  0
 33 35  1  0
 34 36  1  0
 35 37  1  0
 37 43  1  1
 20 21  2  0
 21 22  1  0
M  CHG  3   2  -1  26  -1  41  -1
M  END
>  <COMPND>  (56) 
    udp_gluA.pdb 

>  <AUTHOR>  (56) 
    GENERATED BY OPEN BABEL 3.1.1

>  <MASTER>  (56) 
        0    0    0    0    0    0    0    0   56    0   56    0

>  <minimizedAffinity>  (56) 
-6.83934

>  <CNNscore>  (56) 
0.4268729389

>  <CNNaffinity>  (56) 
4.0594334602

>  <CNN_VS>  (56) 
1.7328622341

>  <CNNaffinity_variance>  (56) 
0.3669936359

$$$$
57
     RDKit          3D

 43 45  0  0  0  0  0  0  0  0999 V2000
   18.7336   74.0967   -7.7433 P   0  0  2  0  0  0  0  0  0  0  0  0
   18.2022   73.7450   -6.2558 O   0  0  0  0  0  0  0  0  0  0  0  0
   17.8006   74.9344   -8.5678 O   0  0  0  0  0  0  0  0  0  0  0  0
   19.1217   72.6555   -8.3681 O   0  0  0  0  0  0  0  0  0  0  0  0
   19.0857   71.5203   -7.5228 C   0  0  0  0  0  0  0  0  0  0  0  0
   17.8131   69.4949   -7.2860 O   0  0  0  0  0  0  0  0  0  0  0  0
   17.0989   69.8254  -10.1795 O   0  0  0  0  0  0  0  0  0  0  0  0
   14.8651   70.7345   -8.9068 O   0  0  0  0  0  0  0  0  0  0  0  0
   17.2803   70.8226   -9.1739 C   0  0  1  0  0  0  0  0  0  0  0  0
   16.0991   70.8329   -8.2269 C   0  0  2  0  0  0  0  0  0  0  0  0
   18.4144   70.3712   -8.2638 C   0  0  1  0  0  0  0  0  0  0  0  0
   16.3840   69.6226   -7.3541 C   0  0  2  0  0  0  0  0  0  0  0  0
   16.3791   70.0918  -10.7733 H   0  0  0  0  0  0  0  0  0  0  0  0
   14.7301   71.5286   -9.4482 H   0  0  0  0  0  0  0  0  0  0  0  0
   13.6867   69.1898   -6.6375 O   0  0  0  0  0  0  0  0  0  0  0  0
   14.5037   70.2243   -2.2209 O   0  0  0  0  0  0  0  0  0  0  0  0
   15.8647   69.7716   -6.0241 N   0  0  0  0  0  0  0  0  0  0  0  0
   14.0960   69.7064   -4.4386 N   0  0  0  0  0  0  0  0  0  0  0  0
   14.4937   69.5303   -5.7705 C   0  0  0  0  0  0  0  0  0  0  0  0
   16.7095   70.1510   -4.9881 C   0  0  0  0  0  0  0  0  0  0  0  0
   16.3158   70.3147   -3.7236 C   0  0  0  0  0  0  0  0  0  0  0  0
   14.8989   70.0831   -3.3742 C   0  0  0  0  0  0  0  0  0  0  0  0
   13.1455   69.5461   -4.2380 H   0  0  0  0  0  0  0  0  0  0  0  0
   20.1754   74.7717   -7.4634 O   0  0  0  0  0  0  0  0  0  0  0  0
   21.5630   74.1310   -6.9364 P   0  0  2  0  0  0  0  0  0  0  0  0
   22.4468   75.4306   -6.5490 O   0  0  0  0  0  0  0  0  0  0  0  0
   22.2235   73.2031   -7.9145 O   0  0  0  0  0  0  0  0  0  0  0  0
   21.1898   73.4554   -5.5198 O   0  0  0  0  0  0  0  0  0  0  0  0
   20.3492   74.2175   -3.4409 O   0  0  0  0  0  0  0  0  0  0  0  0
   23.2813   71.5660   -2.2409 O   0  0  0  0  0  0  0  0  0  0  0  0
   23.7624   73.3992   -4.4641 O   0  0  0  0  0  0  0  0  0  0  0  0
   20.4779   70.8154   -2.0732 O   0  0  0  0  0  0  0  0  0  0  0  0
   22.2577   72.0784   -3.0939 C   0  0  2  0  0  0  0  0  0  0  0  0
   22.6488   73.4737   -3.5815 C   0  0  2  0  0  0  0  0  0  0  0  0
   20.9582   72.1411   -2.2881 C   0  0  1  0  0  0  0  0  0  0  0  0
   21.4826   74.1466   -4.3068 C   0  0  1  0  0  0  0  0  0  0  0  0
   19.8837   72.9357   -3.0248 C   0  0  1  0  0  0  0  0  0  0  0  0
   24.1169   71.5172   -2.7316 H   0  0  0  0  0  0  0  0  0  0  0  0
   24.5060   72.9730   -4.0104 H   0  0  0  0  0  0  0  0  0  0  0  0
   21.1525   70.2990   -1.6051 H   0  0  0  0  0  0  0  0  0  0  0  0
   19.1733   74.0678   -1.0974 O   0  0  0  0  0  0  0  0  0  0  0  0
   17.5996   72.8862   -2.2490 O   0  0  0  0  0  0  0  0  0  0  0  0
   18.7510   73.2708   -2.1100 C   0  0  0  0  0  0  0  0  0  0  0  0
  1  4  1  0
  1 24  1  0
  1  2  1  1
  1  3  2  0
 25 28  1  0
 25 24  1  0
 25 26  1  1
 25 27  2  0
  6 11  1  0
  6 12  1  0
 29 36  1  0
 29 37  1  0
  9  7  1  6
  7 13  1  0
 10  8  1  6
  8 14  1  0
  4  5  1  0
 36 28  1  6
 33 30  1  1
 30 38  1  0
 34 31  1  6
 31 39  1  0
 35 32  1  6
 32 40  1  0
 41 43  1  0
 15 19  2  0
 42 43  2  0
 16 22  2  0
 12 17  1  1
 17 19  1  0
 17 20  1  0
 18 19  1  0
 18 22  1  0
 18 23  1  0
  9 10  1  0
  9 11  1  0
 10 12  1  0
 11  5  1  1
 33 34  1  0
 33 35  1  0
 34 36  1  0
 35 37  1  0
 37 43  1  1
 20 21  2  0
 21 22  1  0
M  CHG  3   2  -1  26  -1  41  -1
M  END
>  <COMPND>  (57) 
    udp_gluA.pdb 

>  <AUTHOR>  (57) 
    GENERATED BY OPEN BABEL 3.1.1

>  <MASTER>  (57) 
        0    0    0    0    0    0    0    0   56    0   56    0

>  <minimizedAffinity>  (57) 
-7.69669

>  <CNNscore>  (57) 
0.4157662988

>  <CNNaffinity>  (57) 
4.2181978226

>  <CNN_VS>  (57) 
1.7537845373

>  <CNNaffinity_variance>  (57) 
0.3717538118

$$$$
58
     RDKit          3D

 43 45  0  0  0  0  0  0  0  0999 V2000
   20.9720   71.3377   -2.1060 P   0  0  2  0  0  0  0  0  0  0  0  0
   22.1321   70.6215   -1.2342 O   0  0  0  0  0  0  0  0  0  0  0  0
   20.1575   72.3552   -1.3624 O   0  0  0  0  0  0  0  0  0  0  0  0
   20.1430   70.1011   -2.7398 O   0  0  0  0  0  0  0  0  0  0  0  0
   19.5012   70.2864   -3.9881 C   0  0  0  0  0  0  0  0  0  0  0  0
   17.5542   71.2834   -4.9845 O   0  0  0  0  0  0  0  0  0  0  0  0
   16.0257   70.1839   -2.6507 O   0  0  0  0  0  0  0  0  0  0  0  0
   15.4556   68.3980   -4.6310 O   0  0  0  0  0  0  0  0  0  0  0  0
   17.1297   69.6163   -3.3561 C   0  0  1  0  0  0  0  0  0  0  0  0
   16.6792   69.0993   -4.7059 C   0  0  2  0  0  0  0  0  0  0  0  0
   18.0700   70.7485   -3.7462 C   0  0  1  0  0  0  0  0  0  0  0  0
   16.5702   70.3809   -5.5142 C   0  0  2  0  0  0  0  0  0  0  0  0
   15.4109   69.4795   -2.3909 H   0  0  0  0  0  0  0  0  0  0  0  0
   15.5774   67.5904   -4.1067 H   0  0  0  0  0  0  0  0  0  0  0  0
   14.8729   71.2423   -7.6008 O   0  0  0  0  0  0  0  0  0  0  0  0
   17.6735   69.5253  -10.8338 O   0  0  0  0  0  0  0  0  0  0  0  0
   16.8316   70.1722   -6.9103 N   0  0  0  0  0  0  0  0  0  0  0  0
   16.2688   70.3854   -9.2090 N   0  0  0  0  0  0  0  0  0  0  0  0
   15.9143   70.6446   -7.8785 C   0  0  0  0  0  0  0  0  0  0  0  0
   17.9857   69.5082   -7.3081 C   0  0  0  0  0  0  0  0  0  0  0  0
   18.3101   69.2687   -8.5802 C   0  0  0  0  0  0  0  0  0  0  0  0
   17.4049   69.7287   -9.6537 C   0  0  0  0  0  0  0  0  0  0  0  0
   15.6446   70.7030   -9.9010 H   0  0  0  0  0  0  0  0  0  0  0  0
   21.7817   71.9218   -3.3773 O   0  0  0  0  0  0  0  0  0  0  0  0
   21.8837   73.4213   -3.9729 P   0  0  2  0  0  0  0  0  0  0  0  0
   23.1030   73.3162   -5.0324 O   0  0  0  0  0  0  0  0  0  0  0  0
   22.0604   74.4873   -2.9305 O   0  0  0  0  0  0  0  0  0  0  0  0
   20.5644   73.5897   -4.8858 O   0  0  0  0  0  0  0  0  0  0  0  0
   20.2293   74.0380   -7.1871 O   0  0  0  0  0  0  0  0  0  0  0  0
   17.1515   76.1825   -5.4561 O   0  0  0  0  0  0  0  0  0  0  0  0
   19.8190   76.1964   -4.2649 O   0  0  0  0  0  0  0  0  0  0  0  0
   16.6009   73.6611   -6.7940 O   0  0  0  0  0  0  0  0  0  0  0  0
   18.0883   75.1117   -5.5742 C   0  0  2  0  0  0  0  0  0  0  0  0
   19.5109   75.6714   -5.5510 C   0  0  2  0  0  0  0  0  0  0  0  0
   17.8206   74.3931   -6.8985 C   0  0  1  0  0  0  0  0  0  0  0  0
   20.5308   74.5880   -5.9041 C   0  0  1  0  0  0  0  0  0  0  0  0
   18.9452   73.4205   -7.2418 C   0  0  1  0  0  0  0  0  0  0  0  0
   17.3025   76.6539   -4.6217 H   0  0  0  0  0  0  0  0  0  0  0  0
   19.1755   76.8843   -4.0343 H   0  0  0  0  0  0  0  0  0  0  0  0
   15.8769   74.2685   -6.5756 H   0  0  0  0  0  0  0  0  0  0  0  0
   19.9829   72.3438   -9.0488 O   0  0  0  0  0  0  0  0  0  0  0  0
   17.8788   73.1536   -9.3896 O   0  0  0  0  0  0  0  0  0  0  0  0
   18.8467   72.9768   -8.6651 C   0  0  0  0  0  0  0  0  0  0  0  0
  1  4  1  0
  1 24  1  0
  1  2  1  1
  1  3  2  0
 25 28  1  0
 25 24  1  0
 25 26  1  6
 25 27  2  0
  6 11  1  0
  6 12  1  0
 29 36  1  0
 29 37  1  0
  9  7  1  1
  7 13  1  0
 10  8  1  1
  8 14  1  0
  4  5  1  0
 36 28  1  1
 33 30  1  6
 30 38  1  0
 34 31  1  1
 31 39  1  0
 35 32  1  1
 32 40  1  0
 41 43  1  0
 15 19  2  0
 42 43  2  0
 16 22  2  0
 12 17  1  6
 17 19  1  0
 17 20  1  0
 18 19  1  0
 18 22  1  0
 18 23  1  0
  9 10  1  0
  9 11  1  0
 10 12  1  0
 11  5  1  6
 33 34  1  0
 33 35  1  0
 34 36  1  0
 35 37  1  0
 37 43  1  6
 20 21  2  0
 21 22  1  0
M  CHG  3   2  -1  26  -1  41  -1
M  END
>  <COMPND>  (58) 
    udp_gluA.pdb 

>  <AUTHOR>  (58) 
    GENERATED BY OPEN BABEL 3.1.1

>  <MASTER>  (58) 
        0    0    0    0    0    0    0    0   56    0   56    0

>  <minimizedAffinity>  (58) 
-7.39128

>  <CNNscore>  (58) 
0.4090649486

>  <CNNaffinity>  (58) 
3.9654068947

>  <CNN_VS>  (58) 
1.6221089363

>  <CNNaffinity_variance>  (58) 
0.8861042261

$$$$
59
     RDKit          3D

 43 45  0  0  0  0  0  0  0  0999 V2000
   19.7948   76.4218   -7.4591 P   0  0  2  0  0  0  0  0  0  0  0  0
   19.2947   77.2776   -6.1799 O   0  0  0  0  0  0  0  0  0  0  0  0
   20.8885   77.0629   -8.2619 O   0  0  0  0  0  0  0  0  0  0  0  0
   18.4305   76.0950   -8.2654 O   0  0  0  0  0  0  0  0  0  0  0  0
   17.6429   74.9965   -7.8443 C   0  0  0  0  0  0  0  0  0  0  0  0
   18.3734   72.7270   -8.1501 O   0  0  0  0  0  0  0  0  0  0  0  0
   16.7528   72.7417  -10.6730 O   0  0  0  0  0  0  0  0  0  0  0  0
   15.1311   71.4109   -8.9309 O   0  0  0  0  0  0  0  0  0  0  0  0
   16.4817   73.3725   -9.4212 C   0  0  1  0  0  0  0  0  0  0  0  0
   16.0486   72.3434   -8.3987 C   0  0  2  0  0  0  0  0  0  0  0  0
   17.8041   73.8584   -8.8438 C   0  0  1  0  0  0  0  0  0  0  0  0
   17.3724   71.7060   -8.0125 C   0  0  2  0  0  0  0  0  0  0  0  0
   15.9226   72.4228  -11.0614 H   0  0  0  0  0  0  0  0  0  0  0  0
   14.3049   71.8654   -9.1607 H   0  0  0  0  0  0  0  0  0  0  0  0
   18.9171   69.5268   -7.0952 O   0  0  0  0  0  0  0  0  0  0  0  0
   17.3078   69.9592   -2.7979 O   0  0  0  0  0  0  0  0  0  0  0  0
   17.3762   71.2279   -6.6589 N   0  0  0  0  0  0  0  0  0  0  0  0
   18.1133   69.7436   -4.9560 N   0  0  0  0  0  0  0  0  0  0  0  0
   18.1884   70.1256   -6.3019 C   0  0  0  0  0  0  0  0  0  0  0  0
   16.5837   71.8494   -5.7015 C   0  0  0  0  0  0  0  0  0  0  0  0
   16.5227   71.4740   -4.4224 C   0  0  0  0  0  0  0  0  0  0  0  0
   17.3399   70.3301   -3.9674 C   0  0  0  0  0  0  0  0  0  0  0  0
   18.6684   68.9772   -4.6841 H   0  0  0  0  0  0  0  0  0  0  0  0
   20.1844   74.9934   -6.8103 O   0  0  0  0  0  0  0  0  0  0  0  0
   21.6051   74.4079   -6.3080 P   0  0  2  0  0  0  0  0  0  0  0  0
   22.4954   75.7409   -6.0820 O   0  0  0  0  0  0  0  0  0  0  0  0
   22.2209   73.4034   -7.2384 O   0  0  0  0  0  0  0  0  0  0  0  0
   21.3166   73.8540   -4.8206 O   0  0  0  0  0  0  0  0  0  0  0  0
   20.3367   71.8409   -4.0482 O   0  0  0  0  0  0  0  0  0  0  0  0
   19.0209   74.5541   -1.2241 O   0  0  0  0  0  0  0  0  0  0  0  0
   19.0405   75.2595   -4.0590 O   0  0  0  0  0  0  0  0  0  0  0  0
   21.1639   72.6991   -0.5781 O   0  0  0  0  0  0  0  0  0  0  0  0
   19.9271   74.0052   -2.1810 C   0  0  2  0  0  0  0  0  0  0  0  0
   19.2512   73.9471   -3.5512 C   0  0  2  0  0  0  0  0  0  0  0  0
   20.3104   72.5984   -1.7164 C   0  0  1  0  0  0  0  0  0  0  0  0
   20.1017   73.1581   -4.5476 C   0  0  1  0  0  0  0  0  0  0  0  0
   21.0461   71.8314   -2.8114 C   0  0  1  0  0  0  0  0  0  0  0  0
   18.7632   75.4484   -1.4984 H   0  0  0  0  0  0  0  0  0  0  0  0
   18.5018   75.7659   -3.4316 H   0  0  0  0  0  0  0  0  0  0  0  0
   20.7075   73.1854    0.1262 H   0  0  0  0  0  0  0  0  0  0  0  0
   21.8510   70.1801   -1.3529 O   0  0  0  0  0  0  0  0  0  0  0  0
   20.6023   69.4810   -3.1280 O   0  0  0  0  0  0  0  0  0  0  0  0
   21.1229   70.3765   -2.4799 C   0  0  0  0  0  0  0  0  0  0  0  0
  1  4  1  0
  1 24  1  0
  1  2  1  1
  1  3  2  0
 25 28  1  0
 25 24  1  0
 25 26  1  1
 25 27  2  0
  6 11  1  0
  6 12  1  0
 29 36  1  0
 29 37  1  0
  9  7  1  6
  7 13  1  0
 10  8  1  6
  8 14  1  0
  4  5  1  0
 36 28  1  1
 33 30  1  1
 30 38  1  0
 34 31  1  6
 31 39  1  0
 35 32  1  1
 32 40  1  0
 41 43  1  0
 15 19  2  0
 42 43  2  0
 16 22  2  0
 12 17  1  1
 17 19  1  0
 17 20  1  0
 18 19  1  0
 18 22  1  0
 18 23  1  0
  9 10  1  0
  9 11  1  0
 10 12  1  0
 11  5  1  1
 33 34  1  0
 33 35  1  0
 34 36  1  0
 35 37  1  0
 37 43  1  1
 20 21  2  0
 21 22  1  0
M  CHG  3   2  -1  26  -1  41  -1
M  END
>  <COMPND>  (59) 
    udp_gluA.pdb 

>  <AUTHOR>  (59) 
    GENERATED BY OPEN BABEL 3.1.1

>  <MASTER>  (59) 
        0    0    0    0    0    0    0    0   56    0   56    0

>  <minimizedAffinity>  (59) 
-7.14439

>  <CNNscore>  (59) 
0.3996205628

>  <CNNaffinity>  (59) 
3.9006876945

>  <CNN_VS>  (59) 
1.5587949753

>  <CNNaffinity_variance>  (59) 
0.7687788010

$$$$
60
     RDKit          3D

 43 45  0  0  0  0  0  0  0  0999 V2000
   21.3186   71.5209   -2.0745 P   0  0  2  0  0  0  0  0  0  0  0  0
   22.8161   70.9515   -1.8461 O   0  0  0  0  0  0  0  0  0  0  0  0
   20.7908   72.3793   -0.9627 O   0  0  0  0  0  0  0  0  0  0  0  0
   20.4487   70.2001   -2.4161 O   0  0  0  0  0  0  0  0  0  0  0  0
   19.6837   70.1838   -3.6073 C   0  0  0  0  0  0  0  0  0  0  0  0
   17.8752   71.4549   -4.5514 O   0  0  0  0  0  0  0  0  0  0  0  0
   16.2370   70.4987   -2.2290 O   0  0  0  0  0  0  0  0  0  0  0  0
   15.4197   68.8600   -4.2496 O   0  0  0  0  0  0  0  0  0  0  0  0
   17.2506   69.8119   -2.9635 C   0  0  1  0  0  0  0  0  0  0  0  0
   16.7240   69.3970   -4.3210 C   0  0  2  0  0  0  0  0  0  0  0  0
   18.3277   70.8220   -3.3348 C   0  0  1  0  0  0  0  0  0  0  0  0
   16.7766   70.7045   -5.0928 C   0  0  2  0  0  0  0  0  0  0  0  0
   15.5375   69.8736   -1.9807 H   0  0  0  0  0  0  0  0  0  0  0  0
   15.4393   68.0288   -3.7490 H   0  0  0  0  0  0  0  0  0  0  0  0
   15.2002   71.8557   -7.1339 O   0  0  0  0  0  0  0  0  0  0  0  0
   17.7093   69.8634  -10.4473 O   0  0  0  0  0  0  0  0  0  0  0  0
   16.9958   70.5033   -6.4973 N   0  0  0  0  0  0  0  0  0  0  0  0
   16.4507   70.8615   -8.7822 N   0  0  0  0  0  0  0  0  0  0  0  0
   16.1459   71.1275   -7.4408 C   0  0  0  0  0  0  0  0  0  0  0  0
   18.0429   69.6975   -6.9274 C   0  0  0  0  0  0  0  0  0  0  0  0
   18.3211   69.4534   -8.2095 C   0  0  0  0  0  0  0  0  0  0  0  0
   17.4807   70.0667   -9.2588 C   0  0  0  0  0  0  0  0  0  0  0  0
   15.8716   71.2835   -9.4574 H   0  0  0  0  0  0  0  0  0  0  0  0
   21.4275   72.2644   -3.5056 O   0  0  0  0  0  0  0  0  0  0  0  0
   22.0192   73.7147   -3.9060 P   0  0  2  0  0  0  0  0  0  0  0  0
   22.9746   73.3879   -5.1712 O   0  0  0  0  0  0  0  0  0  0  0  0
   22.7071   74.4312   -2.7803 O   0  0  0  0  0  0  0  0  0  0  0  0
   20.7647   74.5084   -4.5375 O   0  0  0  0  0  0  0  0  0  0  0  0
   21.6432   76.4131   -5.6370 O   0  0  0  0  0  0  0  0  0  0  0  0
   17.6031   76.7805   -6.4181 O   0  0  0  0  0  0  0  0  0  0  0  0
   18.5318   75.9772   -3.7674 O   0  0  0  0  0  0  0  0  0  0  0  0
   19.4142   75.8638   -8.4991 O   0  0  0  0  0  0  0  0  0  0  0  0
   18.8250   76.0841   -6.1734 C   0  0  2  0  0  0  0  0  0  0  0  0
   19.3721   76.4775   -4.8010 C   0  0  2  0  0  0  0  0  0  0  0  0
   19.8175   76.4698   -7.2725 C   0  0  1  0  0  0  0  0  0  0  0  0
   20.7871   75.9333   -4.5996 C   0  0  1  0  0  0  0  0  0  0  0  0
   21.2301   75.9997   -6.9376 C   0  0  1  0  0  0  0  0  0  0  0  0
   16.9568   76.5510   -5.7319 H   0  0  0  0  0  0  0  0  0  0  0  0
   17.6323   76.3183   -3.8891 H   0  0  0  0  0  0  0  0  0  0  0  0
   18.5165   76.1547   -8.7237 H   0  0  0  0  0  0  0  0  0  0  0  0
   21.6902   77.7300   -8.4528 O   0  0  0  0  0  0  0  0  0  0  0  0
   23.3852   76.2780   -7.9861 O   0  0  0  0  0  0  0  0  0  0  0  0
   22.2327   76.6534   -7.8318 C   0  0  0  0  0  0  0  0  0  0  0  0
  1  4  1  0
  1 24  1  0
  1  2  1  1
  1  3  2  0
 25 28  1  0
 25 24  1  0
 25 26  1  6
 25 27  2  0
  6 11  1  0
  6 12  1  0
 29 36  1  0
 29 37  1  0
  9  7  1  1
  7 13  1  0
 10  8  1  1
  8 14  1  0
  4  5  1  0
 36 28  1  6
 33 30  1  6
 30 38  1  0
 34 31  1  1
 31 39  1  0
 35 32  1  6
 32 40  1  0
 41 43  1  0
 15 19  2  0
 42 43  2  0
 16 22  2  0
 12 17  1  6
 17 19  1  0
 17 20  1  0
 18 19  1  0
 18 22  1  0
 18 23  1  0
  9 10  1  0
  9 11  1  0
 10 12  1  0
 11  5  1  6
 33 34  1  0
 33 35  1  0
 34 36  1  0
 35 37  1  0
 37 43  1  6
 20 21  2  0
 21 22  1  0
M  CHG  3   2  -1  26  -1  41  -1
M  END
>  <COMPND>  (60) 
    udp_gluA.pdb 

>  <AUTHOR>  (60) 
    GENERATED BY OPEN BABEL 3.1.1

>  <MASTER>  (60) 
        0    0    0    0    0    0    0    0   56    0   56    0

>  <minimizedAffinity>  (60) 
-6.90775

>  <CNNscore>  (60) 
0.3909577131

>  <CNNaffinity>  (60) 
4.1866478920

>  <CNN_VS>  (60) 
1.6368023157

>  <CNNaffinity_variance>  (60) 
0.2376647741

$$$$
61
     RDKit          3D

 43 45  0  0  0  0  0  0  0  0999 V2000
   18.8414   73.8708   -7.6439 P   0  0  2  0  0  0  0  0  0  0  0  0
   17.3324   73.6806   -7.0909 O   0  0  0  0  0  0  0  0  0  0  0  0
   19.2032   75.2757   -8.0274 O   0  0  0  0  0  0  0  0  0  0  0  0
   18.9659   72.7671   -8.8204 O   0  0  0  0  0  0  0  0  0  0  0  0
   19.7727   71.6258   -8.5942 C   0  0  0  0  0  0  0  0  0  0  0  0
   18.8959   69.4628   -8.0193 O   0  0  0  0  0  0  0  0  0  0  0  0
   17.2648   69.6633  -10.5275 O   0  0  0  0  0  0  0  0  0  0  0  0
   15.4586   70.3085   -8.5890 O   0  0  0  0  0  0  0  0  0  0  0  0
   17.6344   70.6890   -9.6055 C   0  0  1  0  0  0  0  0  0  0  0  0
   16.8233   70.5671   -8.3330 C   0  0  2  0  0  0  0  0  0  0  0  0
   19.0447   70.3928   -9.1140 C   0  0  1  0  0  0  0  0  0  0  0  0
   17.5148   69.4130   -7.6275 C   0  0  2  0  0  0  0  0  0  0  0  0
   16.3670   69.8310  -10.8553 H   0  0  0  0  0  0  0  0  0  0  0  0
   15.0636   71.0725   -9.0387 H   0  0  0  0  0  0  0  0  0  0  0  0
   15.2477   68.6889   -6.1069 O   0  0  0  0  0  0  0  0  0  0  0  0
   17.3055   69.8481   -2.1489 O   0  0  0  0  0  0  0  0  0  0  0  0
   17.4311   69.5154   -6.1980 N   0  0  0  0  0  0  0  0  0  0  0  0
   16.2744   69.2679   -4.1371 N   0  0  0  0  0  0  0  0  0  0  0  0
   16.2460   69.1251   -5.5306 C   0  0  0  0  0  0  0  0  0  0  0  0
   18.5144   69.9958   -5.4724 C   0  0  0  0  0  0  0  0  0  0  0  0
   18.5266   70.1262   -4.1444 C   0  0  0  0  0  0  0  0  0  0  0  0
   17.3275   69.7414   -3.3714 C   0  0  0  0  0  0  0  0  0  0  0  0
   15.4599   69.0045   -3.6507 H   0  0  0  0  0  0  0  0  0  0  0  0
   19.7439   73.2425   -6.4592 O   0  0  0  0  0  0  0  0  0  0  0  0
   21.1005   73.7771   -5.7609 P   0  0  2  0  0  0  0  0  0  0  0  0
   20.6869   75.2485   -5.2278 O   0  0  0  0  0  0  0  0  0  0  0  0
   22.3033   73.7603   -6.6592 O   0  0  0  0  0  0  0  0  0  0  0  0
   21.2508   72.8870   -4.4239 O   0  0  0  0  0  0  0  0  0  0  0  0
   23.0516   73.7037   -3.1204 O   0  0  0  0  0  0  0  0  0  0  0  0
   21.8416   70.4230   -0.9204 O   0  0  0  0  0  0  0  0  0  0  0  0
   22.0023   70.2749   -3.8336 O   0  0  0  0  0  0  0  0  0  0  0  0
   21.1651   73.1066   -0.0307 O   0  0  0  0  0  0  0  0  0  0  0  0
   21.6741   71.5420   -1.7908 C   0  0  2  0  0  0  0  0  0  0  0  0
   22.5200   71.3429   -3.0488 C   0  0  2  0  0  0  0  0  0  0  0  0
   22.1245   72.7969   -1.0397 C   0  0  1  0  0  0  0  0  0  0  0  0
   22.5480   72.6156   -3.8963 C   0  0  1  0  0  0  0  0  0  0  0  0
   22.2487   73.9936   -1.9784 C   0  0  1  0  0  0  0  0  0  0  0  0
   21.5616   69.6137   -1.3764 H   0  0  0  0  0  0  0  0  0  0  0  0
   21.9814   69.4642   -3.3019 H   0  0  0  0  0  0  0  0  0  0  0  0
   21.0764   72.3529    0.5734 H   0  0  0  0  0  0  0  0  0  0  0  0
   23.6611   74.6607   -0.2287 O   0  0  0  0  0  0  0  0  0  0  0  0
   23.0042   76.2687   -1.7058 O   0  0  0  0  0  0  0  0  0  0  0  0
   22.9925   75.1095   -1.3198 C   0  0  0  0  0  0  0  0  0  0  0  0
  1  4  1  0
  1 24  1  0
  1  2  1  1
  1  3  2  0
 25 28  1  0
 25 24  1  0
 25 26  1  1
 25 27  2  0
  6 11  1  0
  6 12  1  0
 29 36  1  0
 29 37  1  0
  9  7  1  6
  7 13  1  0
 10  8  1  6
  8 14  1  0
  4  5  1  0
 36 28  1  1
 33 30  1  1
 30 38  1  0
 34 31  1  6
 31 39  1  0
 35 32  1  1
 32 40  1  0
 41 43  1  0
 15 19  2  0
 42 43  2  0
 16 22  2  0
 12 17  1  1
 17 19  1  0
 17 20  1  0
 18 19  1  0
 18 22  1  0
 18 23  1  0
  9 10  1  0
  9 11  1  0
 10 12  1  0
 11  5  1  1
 33 34  1  0
 33 35  1  0
 34 36  1  0
 35 37  1  0
 37 43  1  1
 20 21  2  0
 21 22  1  0
M  CHG  3   2  -1  26  -1  41  -1
M  END
>  <COMPND>  (61) 
    udp_gluA.pdb 

>  <AUTHOR>  (61) 
    GENERATED BY OPEN BABEL 3.1.1

>  <MASTER>  (61) 
        0    0    0    0    0    0    0    0   56    0   56    0

>  <minimizedAffinity>  (61) 
-7.95690

>  <CNNscore>  (61) 
0.8392977715

>  <CNNaffinity>  (61) 
4.7084693909

>  <CNN_VS>  (61) 
3.9518079758

>  <CNNaffinity_variance>  (61) 
0.3841941357

$$$$
62
     RDKit          3D

 43 45  0  0  0  0  0  0  0  0999 V2000
   20.0612   71.4090   -2.8278 P   0  0  2  0  0  0  0  0  0  0  0  0
   20.6925   70.1603   -2.0148 O   0  0  0  0  0  0  0  0  0  0  0  0
   19.3902   72.4458   -1.9755 O   0  0  0  0  0  0  0  0  0  0  0  0
   19.1278   70.7102   -3.9496 O   0  0  0  0  0  0  0  0  0  0  0  0
   18.0387   69.9130   -3.5220 C   0  0  0  0  0  0  0  0  0  0  0  0
   16.7724   71.4265   -4.8945 O   0  0  0  0  0  0  0  0  0  0  0  0
   14.4062   70.6786   -3.2113 O   0  0  0  0  0  0  0  0  0  0  0  0
   14.0321   69.1853   -5.4621 O   0  0  0  0  0  0  0  0  0  0  0  0
   15.4980   69.8680   -3.6463 C   0  0  1  0  0  0  0  0  0  0  0  0
   15.3547   69.5413   -5.1176 C   0  0  2  0  0  0  0  0  0  0  0  0
   16.7555   70.7264   -3.6315 C   0  0  1  0  0  0  0  0  0  0  0  0
   15.8011   70.8369   -5.7733 C   0  0  2  0  0  0  0  0  0  0  0  0
   13.5913   70.1517   -3.2124 H   0  0  0  0  0  0  0  0  0  0  0  0
   13.7955   68.3542   -5.0201 H   0  0  0  0  0  0  0  0  0  0  0  0
   14.3558   70.4772   -8.1730 O   0  0  0  0  0  0  0  0  0  0  0  0
   18.2188   70.0178  -10.6448 O   0  0  0  0  0  0  0  0  0  0  0  0
   16.4040   70.6215   -7.0582 N   0  0  0  0  0  0  0  0  0  0  0  0
   16.2812   70.2477   -9.4016 N   0  0  0  0  0  0  0  0  0  0  0  0
   15.5877   70.4520   -8.2015 C   0  0  0  0  0  0  0  0  0  0  0  0
   17.7879   70.5814   -7.1771 C   0  0  0  0  0  0  0  0  0  0  0  0
   18.4345   70.3859   -8.3279 C   0  0  0  0  0  0  0  0  0  0  0  0
   17.6556   70.1992   -9.5696 C   0  0  0  0  0  0  0  0  0  0  0  0
   15.7341   70.1252  -10.2110 H   0  0  0  0  0  0  0  0  0  0  0  0
   21.3167   71.9540   -3.6878 O   0  0  0  0  0  0  0  0  0  0  0  0
   21.9359   73.4399   -3.8372 P   0  0  2  0  0  0  0  0  0  0  0  0
   20.8045   74.2287   -4.6845 O   0  0  0  0  0  0  0  0  0  0  0  0
   23.3059   73.4774   -4.4502 O   0  0  0  0  0  0  0  0  0  0  0  0
   21.8482   74.0708   -2.3550 O   0  0  0  0  0  0  0  0  0  0  0  0
   23.4980   75.3019   -1.1839 O   0  0  0  0  0  0  0  0  0  0  0  0
   21.4568   73.4772    1.9099 O   0  0  0  0  0  0  0  0  0  0  0  0
   22.0933   71.9917   -0.5237 O   0  0  0  0  0  0  0  0  0  0  0  0
   21.0403   76.2995    1.3513 O   0  0  0  0  0  0  0  0  0  0  0  0
   21.6087   74.0745    0.6223 C   0  0  2  0  0  0  0  0  0  0  0  0
   22.6198   73.2728   -0.1977 C   0  0  2  0  0  0  0  0  0  0  0  0
   22.1030   75.5090    0.8217 C   0  0  1  0  0  0  0  0  0  0  0  0
   22.9807   74.0065   -1.4901 C   0  0  1  0  0  0  0  0  0  0  0  0
   22.5620   76.1282   -0.4953 C   0  0  1  0  0  0  0  0  0  0  0  0
   21.1434   72.5646    1.8083 H   0  0  0  0  0  0  0  0  0  0  0  0
   21.8618   71.5207    0.2917 H   0  0  0  0  0  0  0  0  0  0  0  0
   20.7388   75.9160    2.1896 H   0  0  0  0  0  0  0  0  0  0  0  0
   24.6088   77.2544   -0.7050 O   0  0  0  0  0  0  0  0  0  0  0  0
   22.8946   78.3876    0.2832 O   0  0  0  0  0  0  0  0  0  0  0  0
   23.3375   77.3815   -0.2503 C   0  0  0  0  0  0  0  0  0  0  0  0
  1  4  1  0
  1 24  1  0
  1  2  1  1
  1  3  2  0
 25 28  1  0
 25 24  1  0
 25 26  1  6
 25 27  2  0
  6 11  1  0
  6 12  1  0
 29 36  1  0
 29 37  1  0
  9  7  1  6
  7 13  1  0
 10  8  1  1
  8 14  1  0
  4  5  1  0
 36 28  1  6
 33 30  1  1
 30 38  1  0
 34 31  1  6
 31 39  1  0
 35 32  1  6
 32 40  1  0
 41 43  1  0
 15 19  2  0
 42 43  2  0
 16 22  2  0
 12 17  1  6
 17 19  1  0
 17 20  1  0
 18 19  1  0
 18 22  1  0
 18 23  1  0
  9 10  1  0
  9 11  1  0
 10 12  1  0
 11  5  1  6
 33 34  1  0
 33 35  1  0
 34 36  1  0
 35 37  1  0
 37 43  1  1
 20 21  2  0
 21 22  1  0
M  CHG  3   2  -1  26  -1  41  -1
M  END
>  <COMPND>  (62) 
    udp_gluA.pdb 

>  <AUTHOR>  (62) 
    GENERATED BY OPEN BABEL 3.1.1

>  <MASTER>  (62) 
        0    0    0    0    0    0    0    0   56    0   56    0

>  <minimizedAffinity>  (62) 
-7.29817

>  <CNNscore>  (62) 
0.8360387683

>  <CNNaffinity>  (62) 
4.6616024971

>  <CNN_VS>  (62) 
3.8972804546

>  <CNNaffinity_variance>  (62) 
0.0792955309

$$$$
63
     RDKit          3D

 43 45  0  0  0  0  0  0  0  0999 V2000
   21.3916   71.2648   -2.3692 P   0  0  2  0  0  0  0  0  0  0  0  0
   21.3459   69.6870   -2.7262 O   0  0  0  0  0  0  0  0  0  0  0  0
   21.8298   71.5854   -0.9703 O   0  0  0  0  0  0  0  0  0  0  0  0
   19.9225   71.8001   -2.7854 O   0  0  0  0  0  0  0  0  0  0  0  0
   19.3035   71.2514   -3.9345 C   0  0  0  0  0  0  0  0  0  0  0  0
   17.1605   71.5630   -4.9776 O   0  0  0  0  0  0  0  0  0  0  0  0
   16.0179   70.0485   -2.6555 O   0  0  0  0  0  0  0  0  0  0  0  0
   16.0919   68.1594   -4.6206 O   0  0  0  0  0  0  0  0  0  0  0  0
   17.2599   69.8602   -3.3341 C   0  0  1  0  0  0  0  0  0  0  0  0
   17.0271   69.2158   -4.6842 C   0  0  2  0  0  0  0  0  0  0  0  0
   17.7951   71.2314   -3.7236 C   0  0  1  0  0  0  0  0  0  0  0  0
   16.5293   70.3885   -5.5117 C   0  0  2  0  0  0  0  0  0  0  0  0
   15.6564   69.1859   -2.3967 H   0  0  0  0  0  0  0  0  0  0  0  0
   16.4556   67.4376   -4.0833 H   0  0  0  0  0  0  0  0  0  0  0  0
   14.6786   70.5864   -7.6360 O   0  0  0  0  0  0  0  0  0  0  0  0
   17.9586   69.8956  -10.7996 O   0  0  0  0  0  0  0  0  0  0  0  0
   16.8726   70.2643   -6.9001 N   0  0  0  0  0  0  0  0  0  0  0  0
   16.3139   70.2411   -9.2096 N   0  0  0  0  0  0  0  0  0  0  0  0
   15.8670   70.3798   -7.8889 C   0  0  0  0  0  0  0  0  0  0  0  0
   18.1917   70.0327   -7.2704 C   0  0  0  0  0  0  0  0  0  0  0  0
   18.6024   69.9029   -8.5334 C   0  0  0  0  0  0  0  0  0  0  0  0
   17.6145   70.0095   -9.6271 C   0  0  0  0  0  0  0  0  0  0  0  0
   15.6316   70.3157   -9.9155 H   0  0  0  0  0  0  0  0  0  0  0  0
   22.3412   71.8716   -3.5280 O   0  0  0  0  0  0  0  0  0  0  0  0
   22.4973   73.3789   -4.0914 P   0  0  2  0  0  0  0  0  0  0  0  0
   21.8004   73.3025   -5.5504 O   0  0  0  0  0  0  0  0  0  0  0  0
   23.9098   73.8875   -4.1066 O   0  0  0  0  0  0  0  0  0  0  0  0
   21.4793   74.2567   -3.1994 O   0  0  0  0  0  0  0  0  0  0  0  0
   20.9546   76.5258   -2.7694 O   0  0  0  0  0  0  0  0  0  0  0  0
   21.2927   75.0016    1.0556 O   0  0  0  0  0  0  0  0  0  0  0  0
   23.2040   74.2373   -1.0174 O   0  0  0  0  0  0  0  0  0  0  0  0
   18.6691   75.5485   -0.0706 O   0  0  0  0  0  0  0  0  0  0  0  0
   20.9915   74.9663   -0.3394 C   0  0  2  0  0  0  0  0  0  0  0  0
   22.2518   75.2871   -1.1433 C   0  0  2  0  0  0  0  0  0  0  0  0
   19.9048   76.0079   -0.6151 C   0  0  1  0  0  0  0  0  0  0  0  0
   21.9210   75.4846   -2.6233 C   0  0  1  0  0  0  0  0  0  0  0  0
   19.7220   76.2394   -2.1122 C   0  0  1  0  0  0  0  0  0  0  0  0
   21.9813   74.3477    1.2546 H   0  0  0  0  0  0  0  0  0  0  0  0
   23.4182   74.1063   -0.0807 H   0  0  0  0  0  0  0  0  0  0  0  0
   18.7718   75.3971    0.8820 H   0  0  0  0  0  0  0  0  0  0  0  0
   19.3967   78.1499   -3.4334 O   0  0  0  0  0  0  0  0  0  0  0  0
   17.9477   77.8225   -1.7035 O   0  0  0  0  0  0  0  0  0  0  0  0
   18.9137   77.4705   -2.3639 C   0  0  0  0  0  0  0  0  0  0  0  0
  1  4  1  0
  1 24  1  0
  1  2  1  1
  1  3  2  0
 25 28  1  0
 25 24  1  0
 25 26  1  6
 25 27  2  0
  6 11  1  0
  6 12  1  0
 29 36  1  0
 29 37  1  0
  9  7  1  6
  7 13  1  0
 10  8  1  1
  8 14  1  0
  4  5  1  0
 36 28  1  1
 33 30  1  1
 30 38  1  0
 34 31  1  6
 31 39  1  0
 35 32  1  6
 32 40  1  0
 41 43  1  0
 15 19  2  0
 42 43  2  0
 16 22  2  0
 12 17  1  6
 17 19  1  0
 17 20  1  0
 18 19  1  0
 18 22  1  0
 18 23  1  0
  9 10  1  0
  9 11  1  0
 10 12  1  0
 11  5  1  6
 33 34  1  0
 33 35  1  0
 34 36  1  0
 35 37  1  0
 37 43  1  1
 20 21  2  0
 21 22  1  0
M  CHG  3   2  -1  26  -1  41  -1
M  END
>  <COMPND>  (63) 
    udp_gluA.pdb 

>  <AUTHOR>  (63) 
    GENERATED BY OPEN BABEL 3.1.1

>  <MASTER>  (63) 
        0    0    0    0    0    0    0    0   56    0   56    0

>  <minimizedAffinity>  (63) 
-7.03423

>  <CNNscore>  (63) 
0.7259464860

>  <CNNaffinity>  (63) 
4.5030183792

>  <CNN_VS>  (63) 
3.2689504623

>  <CNNaffinity_variance>  (63) 
0.0181618538

$$$$
64
     RDKit          3D

 43 45  0  0  0  0  0  0  0  0999 V2000
   19.2717   70.6868   -3.2133 P   0  0  2  0  0  0  0  0  0  0  0  0
   19.4389   71.4029   -4.6549 O   0  0  0  0  0  0  0  0  0  0  0  0
   19.8503   69.3053   -3.1212 O   0  0  0  0  0  0  0  0  0  0  0  0
   17.6888   70.8079   -2.9006 O   0  0  0  0  0  0  0  0  0  0  0  0
   16.9198   71.7294   -3.6515 C   0  0  0  0  0  0  0  0  0  0  0  0
   15.3193   71.2113   -5.3684 O   0  0  0  0  0  0  0  0  0  0  0  0
   14.1094   69.2967   -3.4032 O   0  0  0  0  0  0  0  0  0  0  0  0
   15.5631   67.6513   -5.0205 O   0  0  0  0  0  0  0  0  0  0  0  0
   15.4818   69.6311   -3.6113 C   0  0  1  0  0  0  0  0  0  0  0  0
   15.9899   68.9907   -4.8857 C   0  0  2  0  0  0  0  0  0  0  0  0
   15.5581   71.1141   -3.9475 C   0  0  1  0  0  0  0  0  0  0  0  0
   15.4042   69.9012   -5.9514 C   0  0  2  0  0  0  0  0  0  0  0  0
   14.0353   68.3536   -3.1869 H   0  0  0  0  0  0  0  0  0  0  0  0
   15.9632   67.1123   -4.3195 H   0  0  0  0  0  0  0  0  0  0  0  0
   14.4630   70.6274   -8.5133 O   0  0  0  0  0  0  0  0  0  0  0  0
   18.6401   70.1155  -10.3933 O   0  0  0  0  0  0  0  0  0  0  0  0
   16.2242   69.9660   -7.1279 N   0  0  0  0  0  0  0  0  0  0  0  0
   16.5441   70.3708   -9.4474 N   0  0  0  0  0  0  0  0  0  0  0  0
   15.6529   70.3418   -8.3667 C   0  0  0  0  0  0  0  0  0  0  0  0
   17.5776   69.6611   -7.0477 C   0  0  0  0  0  0  0  0  0  0  0  0
   18.4145   69.6932   -8.0866 C   0  0  0  0  0  0  0  0  0  0  0  0
   17.8974   70.0753   -9.4170 C   0  0  0  0  0  0  0  0  0  0  0  0
   16.1691   70.6276  -10.3207 H   0  0  0  0  0  0  0  0  0  0  0  0
   19.9260   71.7600   -2.1970 O   0  0  0  0  0  0  0  0  0  0  0  0
   21.4260   71.8856   -1.6071 P   0  0  2  0  0  0  0  0  0  0  0  0
   22.2539   72.5352   -2.8371 O   0  0  0  0  0  0  0  0  0  0  0  0
   21.9950   70.5954   -1.0917 O   0  0  0  0  0  0  0  0  0  0  0  0
   21.3366   73.0640   -0.5090 O   0  0  0  0  0  0  0  0  0  0  0  0
   23.4650   74.0992   -0.4228 O   0  0  0  0  0  0  0  0  0  0  0  0
   21.3373   76.3207    2.3350 O   0  0  0  0  0  0  0  0  0  0  0  0
   21.0496   73.4153    2.2351 O   0  0  0  0  0  0  0  0  0  0  0  0
   21.9112   77.4205   -0.2940 O   0  0  0  0  0  0  0  0  0  0  0  0
   21.5211   75.5366    1.1563 C   0  0  2  0  0  0  0  0  0  0  0  0
   22.0474   74.1531    1.5390 C   0  0  2  0  0  0  0  0  0  0  0  0
   22.5284   76.2599    0.2595 C   0  0  1  0  0  0  0  0  0  0  0  0
   22.4731   73.3672    0.2980 C   0  0  1  0  0  0  0  0  0  0  0  0
   22.9991   75.3655   -0.8838 C   0  0  1  0  0  0  0  0  0  0  0  0
   20.7009   75.8806    2.9204 H   0  0  0  0  0  0  0  0  0  0  0  0
   20.7746   73.9083    3.0236 H   0  0  0  0  0  0  0  0  0  0  0  0
   21.6069   77.9982    0.4233 H   0  0  0  0  0  0  0  0  0  0  0  0
   24.8716   76.7660   -0.6996 O   0  0  0  0  0  0  0  0  0  0  0  0
   24.5516   75.7144   -2.6974 O   0  0  0  0  0  0  0  0  0  0  0  0
   24.2051   75.9450   -1.5486 C   0  0  0  0  0  0  0  0  0  0  0  0
  1  4  1  0
  1 24  1  0
  1  2  1  6
  1  3  2  0
 25 28  1  0
 25 24  1  0
 25 26  1  6
 25 27  2  0
  6 11  1  0
  6 12  1  0
 29 36  1  0
 29 37  1  0
  9  7  1  6
  7 13  1  0
 10  8  1  6
  8 14  1  0
  4  5  1  0
 36 28  1  6
 33 30  1  1
 30 38  1  0
 34 31  1  6
 31 39  1  0
 35 32  1  6
 32 40  1  0
 41 43  1  0
 15 19  2  0
 42 43  2  0
 16 22  2  0
 12 17  1  6
 17 19  1  0
 17 20  1  0
 18 19  1  0
 18 22  1  0
 18 23  1  0
  9 10  1  0
  9 11  1  0
 10 12  1  0
 11  5  1  6
 33 34  1  0
 33 35  1  0
 34 36  1  0
 35 37  1  0
 37 43  1  1
 20 21  2  0
 21 22  1  0
M  CHG  3   2  -1  26  -1  41  -1
M  END
>  <COMPND>  (64) 
    udp_gluA.pdb 

>  <AUTHOR>  (64) 
    GENERATED BY OPEN BABEL 3.1.1

>  <MASTER>  (64) 
        0    0    0    0    0    0    0    0   56    0   56    0

>  <minimizedAffinity>  (64) 
-7.78503

>  <CNNscore>  (64) 
0.6898375750

>  <CNNaffinity>  (64) 
4.4521188736

>  <CNN_VS>  (64) 
3.0712389946

>  <CNNaffinity_variance>  (64) 
0.0219857097

$$$$
65
     RDKit          3D

 43 45  0  0  0  0  0  0  0  0999 V2000
   18.7719   74.0291   -7.3112 P   0  0  2  0  0  0  0  0  0  0  0  0
   17.2817   74.1144   -6.6860 O   0  0  0  0  0  0  0  0  0  0  0  0
   19.1481   75.1702   -8.2101 O   0  0  0  0  0  0  0  0  0  0  0  0
   18.8279   72.5579   -7.9824 O   0  0  0  0  0  0  0  0  0  0  0  0
   18.8745   71.4276   -7.1311 C   0  0  0  0  0  0  0  0  0  0  0  0
   17.5608   69.4344   -6.8504 O   0  0  0  0  0  0  0  0  0  0  0  0
   17.0163   69.6022   -9.7944 O   0  0  0  0  0  0  0  0  0  0  0  0
   14.7278   70.6101   -8.7067 O   0  0  0  0  0  0  0  0  0  0  0  0
   17.1552   70.6547   -8.8397 C   0  0  1  0  0  0  0  0  0  0  0  0
   15.9226   70.7342   -7.9641 C   0  0  2  0  0  0  0  0  0  0  0  0
   18.2293   70.2446   -7.8414 C   0  0  1  0  0  0  0  0  0  0  0  0
   16.1399   69.5742   -7.0076 C   0  0  2  0  0  0  0  0  0  0  0  0
   16.3352   69.8414  -10.4429 H   0  0  0  0  0  0  0  0  0  0  0  0
   14.6353   71.3725   -9.3001 H   0  0  0  0  0  0  0  0  0  0  0  0
   15.1120   67.5446   -5.3339 O   0  0  0  0  0  0  0  0  0  0  0  0
   13.8935   70.5838   -2.0900 O   0  0  0  0  0  0  0  0  0  0  0  0
   15.5484   69.8071   -5.7204 N   0  0  0  0  0  0  0  0  0  0  0  0
   14.5052   69.0603   -3.7203 N   0  0  0  0  0  0  0  0  0  0  0  0
   15.0624   68.7177   -4.9594 C   0  0  0  0  0  0  0  0  0  0  0  0
   15.4560   71.1015   -5.2236 C   0  0  0  0  0  0  0  0  0  0  0  0
   14.9223   71.4125   -4.0407 C   0  0  0  0  0  0  0  0  0  0  0  0
   14.3904   70.3326   -3.1838 C   0  0  0  0  0  0  0  0  0  0  0  0
   14.1582   68.3189   -3.1734 H   0  0  0  0  0  0  0  0  0  0  0  0
   19.7060   73.8669   -6.0020 O   0  0  0  0  0  0  0  0  0  0  0  0
   21.2782   74.1682   -5.7759 P   0  0  2  0  0  0  0  0  0  0  0  0
   21.3355   75.7831   -5.6814 O   0  0  0  0  0  0  0  0  0  0  0  0
   22.1753   73.5779   -6.8250 O   0  0  0  0  0  0  0  0  0  0  0  0
   21.5802   73.6614   -4.2744 O   0  0  0  0  0  0  0  0  0  0  0  0
   19.7067   72.5637   -3.3288 O   0  0  0  0  0  0  0  0  0  0  0  0
   22.3128   72.6890   -0.1256 O   0  0  0  0  0  0  0  0  0  0  0  0
   22.0074   75.0066   -1.8777 O   0  0  0  0  0  0  0  0  0  0  0  0
   21.8997   70.2027   -1.5742 O   0  0  0  0  0  0  0  0  0  0  0  0
   21.9427   72.6106   -1.5021 C   0  0  2  0  0  0  0  0  0  0  0  0
   21.1596   73.8640   -1.8937 C   0  0  2  0  0  0  0  0  0  0  0  0
   21.0772   71.3624   -1.6887 C   0  0  1  0  0  0  0  0  0  0  0  0
   20.5506   73.7151   -3.2886 C   0  0  1  0  0  0  0  0  0  0  0  0
   20.4050   71.3502   -3.0586 C   0  0  1  0  0  0  0  0  0  0  0  0
   22.8635   73.4750    0.0171 H   0  0  0  0  0  0  0  0  0  0  0  0
   22.3975   75.1070   -0.9956 H   0  0  0  0  0  0  0  0  0  0  0  0
   22.3336   70.1984   -0.7067 H   0  0  0  0  0  0  0  0  0  0  0  0
   19.8477   69.0809   -3.2612 O   0  0  0  0  0  0  0  0  0  0  0  0
   18.1265   70.5574   -3.0234 O   0  0  0  0  0  0  0  0  0  0  0  0
   19.3224   70.3218   -3.1091 C   0  0  0  0  0  0  0  0  0  0  0  0
  1  4  1  0
  1 24  1  0
  1  2  1  1
  1  3  2  0
 25 28  1  0
 25 24  1  0
 25 26  1  1
 25 27  2  0
  6 11  1  0
  6 12  1  0
 29 36  1  0
 29 37  1  0
  9  7  1  6
  7 13  1  0
 10  8  1  6
  8 14  1  0
  4  5  1  0
 36 28  1  6
 33 30  1  1
 30 38  1  0
 34 31  1  6
 31 39  1  0
 35 32  1  6
 32 40  1  0
 41 43  1  0
 15 19  2  0
 42 43  2  0
 16 22  2  0
 12 17  1  1
 17 19  1  0
 17 20  1  0
 18 19  1  0
 18 22  1  0
 18 23  1  0
  9 10  1  0
  9 11  1  0
 10 12  1  0
 11  5  1  1
 33 34  1  0
 33 35  1  0
 34 36  1  0
 35 37  1  0
 37 43  1  1
 20 21  2  0
 21 22  1  0
M  CHG  3   2  -1  26  -1  41  -1
M  END
>  <COMPND>  (65) 
    udp_gluA.pdb 

>  <AUTHOR>  (65) 
    GENERATED BY OPEN BABEL 3.1.1

>  <MASTER>  (65) 
        0    0    0    0    0    0    0    0   56    0   56    0

>  <minimizedAffinity>  (65) 
-7.88589

>  <CNNscore>  (65) 
0.6067749858

>  <CNNaffinity>  (65) 
4.3512101173

>  <CNN_VS>  (65) 
2.6402053833

>  <CNNaffinity_variance>  (65) 
0.5241155028

$$$$
66
     RDKit          3D

 43 45  0  0  0  0  0  0  0  0999 V2000
   18.8218   73.9112   -8.0679 P   0  0  2  0  0  0  0  0  0  0  0  0
   17.6518   74.8559   -8.6658 O   0  0  0  0  0  0  0  0  0  0  0  0
   20.1198   74.6104   -7.7885 O   0  0  0  0  0  0  0  0  0  0  0  0
   18.8985   72.6788   -9.1135 O   0  0  0  0  0  0  0  0  0  0  0  0
   19.6218   71.5201   -8.7410 C   0  0  0  0  0  0  0  0  0  0  0  0
   18.7498   69.3717   -8.1074 O   0  0  0  0  0  0  0  0  0  0  0  0
   17.0251   69.5577  -10.5532 O   0  0  0  0  0  0  0  0  0  0  0  0
   15.3003   70.2409   -8.5546 O   0  0  0  0  0  0  0  0  0  0  0  0
   17.4385   70.5906   -9.6583 C   0  0  1  0  0  0  0  0  0  0  0  0
   16.6759   70.4904   -8.3542 C   0  0  2  0  0  0  0  0  0  0  0  0
   18.8641   70.2877   -9.2179 C   0  0  1  0  0  0  0  0  0  0  0  0
   17.3844   69.3385   -7.6622 C   0  0  2  0  0  0  0  0  0  0  0  0
   16.1167   69.7296  -10.8484 H   0  0  0  0  0  0  0  0  0  0  0  0
   14.8947   71.0032   -8.9977 H   0  0  0  0  0  0  0  0  0  0  0  0
   15.1094   68.8412   -6.0643 O   0  0  0  0  0  0  0  0  0  0  0  0
   17.3931   69.8285   -2.1843 O   0  0  0  0  0  0  0  0  0  0  0  0
   17.3566   69.4580   -6.2319 N   0  0  0  0  0  0  0  0  0  0  0  0
   16.2487   69.3344   -4.1335 N   0  0  0  0  0  0  0  0  0  0  0  0
   16.1622   69.1854   -5.5239 C   0  0  0  0  0  0  0  0  0  0  0  0
   18.5030   69.8393   -5.5453 C   0  0  0  0  0  0  0  0  0  0  0  0
   18.5700   69.9769   -4.2197 C   0  0  0  0  0  0  0  0  0  0  0  0
   17.3656   69.7119   -3.4058 C   0  0  0  0  0  0  0  0  0  0  0  0
   15.4291   69.1521   -3.6192 H   0  0  0  0  0  0  0  0  0  0  0  0
   18.1232   73.2449   -6.7715 O   0  0  0  0  0  0  0  0  0  0  0  0
   17.8484   73.8363   -5.2922 P   0  0  2  0  0  0  0  0  0  0  0  0
   16.5976   72.9530   -4.7671 O   0  0  0  0  0  0  0  0  0  0  0  0
   17.6171   75.3192   -5.2550 O   0  0  0  0  0  0  0  0  0  0  0  0
   19.1017   73.3319   -4.4104 O   0  0  0  0  0  0  0  0  0  0  0  0
   20.1181   73.5463   -2.2820 O   0  0  0  0  0  0  0  0  0  0  0  0
   23.2091   74.6244   -4.8022 O   0  0  0  0  0  0  0  0  0  0  0  0
   20.4909   75.5696   -5.3043 O   0  0  0  0  0  0  0  0  0  0  0  0
   23.2049   72.0083   -3.5344 O   0  0  0  0  0  0  0  0  0  0  0  0
   22.0302   73.9194   -4.4135 C   0  0  2  0  0  0  0  0  0  0  0  0
   20.9128   74.9183   -4.1116 C   0  0  2  0  0  0  0  0  0  0  0  0
   22.3606   73.0972   -3.1658 C   0  0  1  0  0  0  0  0  0  0  0  0
   19.7113   74.2190   -3.4743 C   0  0  1  0  0  0  0  0  0  0  0  0
   21.0979   72.5374   -2.5170 C   0  0  1  0  0  0  0  0  0  0  0  0
   23.0232   75.1541   -5.5935 H   0  0  0  0  0  0  0  0  0  0  0  0
   21.2484   76.0153   -5.7141 H   0  0  0  0  0  0  0  0  0  0  0  0
   24.0122   72.3510   -3.9487 H   0  0  0  0  0  0  0  0  0  0  0  0
   21.7257   70.7132   -1.1831 O   0  0  0  0  0  0  0  0  0  0  0  0
   21.3361   72.6929   -0.1211 O   0  0  0  0  0  0  0  0  0  0  0  0
   21.3891   72.0262   -1.1437 C   0  0  0  0  0  0  0  0  0  0  0  0
  1  4  1  0
  1 24  1  0
  1  2  1  6
  1  3  2  0
 25 28  1  0
 25 24  1  0
 25 26  1  1
 25 27  2  0
  6 11  1  0
  6 12  1  0
 29 36  1  0
 29 37  1  0
  9  7  1  6
  7 13  1  0
 10  8  1  6
  8 14  1  0
  4  5  1  0
 36 28  1  6
 33 30  1  1
 30 38  1  0
 34 31  1  6
 31 39  1  0
 35 32  1  6
 32 40  1  0
 41 43  1  0
 15 19  2  0
 42 43  2  0
 16 22  2  0
 12 17  1  1
 17 19  1  0
 17 20  1  0
 18 19  1  0
 18 22  1  0
 18 23  1  0
  9 10  1  0
  9 11  1  0
 10 12  1  0
 11  5  1  1
 33 34  1  0
 33 35  1  0
 34 36  1  0
 35 37  1  0
 37 43  1  1
 20 21  2  0
 21 22  1  0
M  CHG  3   2  -1  26  -1  41  -1
M  END
>  <COMPND>  (66) 
    udp_gluA.pdb 

>  <AUTHOR>  (66) 
    GENERATED BY OPEN BABEL 3.1.1

>  <MASTER>  (66) 
        0    0    0    0    0    0    0    0   56    0   56    0

>  <minimizedAffinity>  (66) 
-8.03114

>  <CNNscore>  (66) 
0.5984072089

>  <CNNaffinity>  (66) 
4.4057874680

>  <CNN_VS>  (66) 
2.6364550591

>  <CNNaffinity_variance>  (66) 
0.6307648420

$$$$
67
     RDKit          3D

 43 45  0  0  0  0  0  0  0  0999 V2000
   19.3202   73.6972   -7.5548 P   0  0  2  0  0  0  0  0  0  0  0  0
   18.1024   73.2437   -6.5903 O   0  0  0  0  0  0  0  0  0  0  0  0
   19.3148   75.1466   -7.9432 O   0  0  0  0  0  0  0  0  0  0  0  0
   19.2598   72.6414   -8.7794 O   0  0  0  0  0  0  0  0  0  0  0  0
   20.0060   71.4426   -8.6760 C   0  0  0  0  0  0  0  0  0  0  0  0
   18.9117   69.3659   -8.1587 O   0  0  0  0  0  0  0  0  0  0  0  0
   17.3730   69.7577  -10.7024 O   0  0  0  0  0  0  0  0  0  0  0  0
   15.5871   70.5458   -8.7983 O   0  0  0  0  0  0  0  0  0  0  0  0
   17.8149   70.7299   -9.7548 C   0  0  1  0  0  0  0  0  0  0  0  0
   16.9630   70.6685   -8.5047 C   0  0  2  0  0  0  0  0  0  0  0  0
   19.1772   70.2927   -9.2338 C   0  0  1  0  0  0  0  0  0  0  0  0
   17.5225   69.4434   -7.8017 C   0  0  2  0  0  0  0  0  0  0  0  0
   16.5042   70.0155  -11.0494 H   0  0  0  0  0  0  0  0  0  0  0  0
   15.2787   71.3505   -9.2448 H   0  0  0  0  0  0  0  0  0  0  0  0
   15.1314   69.0251   -6.3581 O   0  0  0  0  0  0  0  0  0  0  0  0
   17.2149   69.8133   -2.3231 O   0  0  0  0  0  0  0  0  0  0  0  0
   17.4118   69.5330   -6.3733 N   0  0  0  0  0  0  0  0  0  0  0  0
   16.1711   69.4190   -4.3499 N   0  0  0  0  0  0  0  0  0  0  0  0
   16.1640   69.3048   -5.7463 C   0  0  0  0  0  0  0  0  0  0  0  0
   18.5304   69.8420   -5.6089 C   0  0  0  0  0  0  0  0  0  0  0  0
   18.5216   69.9473   -4.2787 C   0  0  0  0  0  0  0  0  0  0  0  0
   17.2576   69.7247   -3.5464 C   0  0  0  0  0  0  0  0  0  0  0  0
   15.3134   69.2665   -3.8912 H   0  0  0  0  0  0  0  0  0  0  0  0
   20.6294   73.2253   -6.7324 O   0  0  0  0  0  0  0  0  0  0  0  0
   21.5270   73.9978   -5.6318 P   0  0  2  0  0  0  0  0  0  0  0  0
   21.7155   75.4708   -6.2761 O   0  0  0  0  0  0  0  0  0  0  0  0
   22.8132   73.3035   -5.2890 O   0  0  0  0  0  0  0  0  0  0  0  0
   20.5345   74.2246   -4.3804 O   0  0  0  0  0  0  0  0  0  0  0  0
   20.8934   72.4715   -2.8290 O   0  0  0  0  0  0  0  0  0  0  0  0
   17.9198   74.6495   -0.9631 O   0  0  0  0  0  0  0  0  0  0  0  0
   17.8072   74.1510   -3.8395 O   0  0  0  0  0  0  0  0  0  0  0  0
   20.6653   74.8258   -0.0241 O   0  0  0  0  0  0  0  0  0  0  0  0
   19.0677   74.4520   -1.7885 C   0  0  2  0  0  0  0  0  0  0  0  0
   18.7124   73.5160   -2.9439 C   0  0  2  0  0  0  0  0  0  0  0  0
   20.1709   73.8364   -0.9247 C   0  0  1  0  0  0  0  0  0  0  0  0
   19.9654   73.0986   -3.7150 C   0  0  1  0  0  0  0  0  0  0  0  0
   21.3302   73.3311   -1.7786 C   0  0  1  0  0  0  0  0  0  0  0  0
   17.2053   75.0400   -1.4907 H   0  0  0  0  0  0  0  0  0  0  0  0
   17.0099   74.4188   -3.3568 H   0  0  0  0  0  0  0  0  0  0  0  0
   19.9372   75.1558    0.5252 H   0  0  0  0  0  0  0  0  0  0  0  0
   21.9628   71.1435   -1.2168 O   0  0  0  0  0  0  0  0  0  0  0  0
   23.1018   72.8454   -0.2143 O   0  0  0  0  0  0  0  0  0  0  0  0
   22.2340   72.4506   -0.9784 C   0  0  0  0  0  0  0  0  0  0  0  0
  1  4  1  0
  1 24  1  0
  1  2  1  1
  1  3  2  0
 25 28  1  0
 25 24  1  0
 25 26  1  6
 25 27  2  0
  6 11  1  0
  6 12  1  0
 29 36  1  0
 29 37  1  0
  9  7  1  6
  7 13  1  0
 10  8  1  6
  8 14  1  0
  4  5  1  0
 36 28  1  1
 33 30  1  1
 30 38  1  0
 34 31  1  6
 31 39  1  0
 35 32  1  1
 32 40  1  0
 41 43  1  0
 15 19  2  0
 42 43  2  0
 16 22  2  0
 12 17  1  1
 17 19  1  0
 17 20  1  0
 18 19  1  0
 18 22  1  0
 18 23  1  0
  9 10  1  0
  9 11  1  0
 10 12  1  0
 11  5  1  1
 33 34  1  0
 33 35  1  0
 34 36  1  0
 35 37  1  0
 37 43  1  1
 20 21  2  0
 21 22  1  0
M  CHG  3   2  -1  26  -1  41  -1
M  END
>  <COMPND>  (67) 
    udp_gluA.pdb 

>  <AUTHOR>  (67) 
    GENERATED BY OPEN BABEL 3.1.1

>  <MASTER>  (67) 
        0    0    0    0    0    0    0    0   56    0   56    0

>  <minimizedAffinity>  (67) 
-8.02732

>  <CNNscore>  (67) 
0.5806902051

>  <CNNaffinity>  (67) 
4.3314619064

>  <CNN_VS>  (67) 
2.5152375698

>  <CNNaffinity_variance>  (67) 
0.5747157931

$$$$
68
     RDKit          3D

 43 45  0  0  0  0  0  0  0  0999 V2000
   21.0653   73.6824   -6.5307 P   0  0  2  0  0  0  0  0  0  0  0  0
   21.1591   74.9067   -7.5849 O   0  0  0  0  0  0  0  0  0  0  0  0
   22.3048   73.4505   -5.7172 O   0  0  0  0  0  0  0  0  0  0  0  0
   20.5713   72.4318   -7.4306 O   0  0  0  0  0  0  0  0  0  0  0  0
   19.4443   72.6061   -8.2697 C   0  0  0  0  0  0  0  0  0  0  0  0
   18.9104   70.3243   -7.7349 O   0  0  0  0  0  0  0  0  0  0  0  0
   17.6238   70.1866  -10.4399 O   0  0  0  0  0  0  0  0  0  0  0  0
   15.4852   70.5055   -8.7784 O   0  0  0  0  0  0  0  0  0  0  0  0
   17.6709   71.2741   -9.5160 C   0  0  1  0  0  0  0  0  0  0  0  0
   16.7318   71.0177   -8.3564 C   0  0  2  0  0  0  0  0  0  0  0  0
   19.0322   71.2527   -8.8343 C   0  0  1  0  0  0  0  0  0  0  0  0
   17.5220   70.0217   -7.5249 C   0  0  2  0  0  0  0  0  0  0  0  0
   16.7631   70.1796  -10.8880 H   0  0  0  0  0  0  0  0  0  0  0  0
   15.0208   71.1768   -9.3035 H   0  0  0  0  0  0  0  0  0  0  0  0
   16.4574   67.9240   -5.9619 O   0  0  0  0  0  0  0  0  0  0  0  0
   16.4368   70.5249   -2.1568 O   0  0  0  0  0  0  0  0  0  0  0  0
   17.2288   70.1235   -6.1233 N   0  0  0  0  0  0  0  0  0  0  0  0
   16.4472   69.2217   -4.0684 N   0  0  0  0  0  0  0  0  0  0  0  0
   16.6957   69.0105   -5.4310 C   0  0  0  0  0  0  0  0  0  0  0  0
   17.4706   71.3141   -5.4487 C   0  0  0  0  0  0  0  0  0  0  0  0
   17.2287   71.5003   -4.1497 C   0  0  0  0  0  0  0  0  0  0  0  0
   16.6705   70.3875   -3.3537 C   0  0  0  0  0  0  0  0  0  0  0  0
   16.0740   68.4619   -3.5658 H   0  0  0  0  0  0  0  0  0  0  0  0
   19.7505   74.0490   -5.6649 O   0  0  0  0  0  0  0  0  0  0  0  0
   19.5048   75.1785   -4.5346 P   0  0  2  0  0  0  0  0  0  0  0  0
   17.9381   75.0005   -4.1683 O   0  0  0  0  0  0  0  0  0  0  0  0
   19.8869   76.5671   -4.9584 O   0  0  0  0  0  0  0  0  0  0  0  0
   20.2910   74.6349   -3.2351 O   0  0  0  0  0  0  0  0  0  0  0  0
   19.8099   72.5408   -2.2387 O   0  0  0  0  0  0  0  0  0  0  0  0
   21.6634   74.5423    0.8641 O   0  0  0  0  0  0  0  0  0  0  0  0
   19.7207   75.9144   -0.8322 O   0  0  0  0  0  0  0  0  0  0  0  0
   23.0989   72.4908   -0.6131 O   0  0  0  0  0  0  0  0  0  0  0  0
   21.4068   74.2022   -0.4985 C   0  0  2  0  0  0  0  0  0  0  0  0
   19.9479   74.5097   -0.8366 C   0  0  2  0  0  0  0  0  0  0  0  0
   21.6906   72.7088   -0.6746 C   0  0  1  0  0  0  0  0  0  0  0  0
   19.5747   73.9491   -2.2097 C   0  0  1  0  0  0  0  0  0  0  0  0
   21.1764   72.1986   -2.0177 C   0  0  1  0  0  0  0  0  0  0  0  0
   21.4898   75.4871    0.9999 H   0  0  0  0  0  0  0  0  0  0  0  0
   19.9557   76.2768    0.0360 H   0  0  0  0  0  0  0  0  0  0  0  0
   23.4388   72.8113    0.2370 H   0  0  0  0  0  0  0  0  0  0  0  0
   22.0029   70.1977   -1.1151 O   0  0  0  0  0  0  0  0  0  0  0  0
   20.4740   70.0262   -2.7979 O   0  0  0  0  0  0  0  0  0  0  0  0
   21.1569   70.7049   -2.0456 C   0  0  0  0  0  0  0  0  0  0  0  0
  1  4  1  0
  1 24  1  0
  1  2  1  6
  1  3  2  0
 25 28  1  0
 25 24  1  0
 25 26  1  1
 25 27  2  0
  6 11  1  0
  6 12  1  0
 29 36  1  0
 29 37  1  0
  9  7  1  6
  7 13  1  0
 10  8  1  6
  8 14  1  0
  4  5  1  0
 36 28  1  6
 33 30  1  1
 30 38  1  0
 34 31  1  6
 31 39  1  0
 35 32  1  6
 32 40  1  0
 41 43  1  0
 15 19  2  0
 42 43  2  0
 16 22  2  0
 12 17  1  1
 17 19  1  0
 17 20  1  0
 18 19  1  0
 18 22  1  0
 18 23  1  0
  9 10  1  0
  9 11  1  0
 10 12  1  0
 11  5  1  1
 33 34  1  0
 33 35  1  0
 34 36  1  0
 35 37  1  0
 37 43  1  1
 20 21  2  0
 21 22  1  0
M  CHG  3   2  -1  26  -1  41  -1
M  END
>  <COMPND>  (68) 
    udp_gluA.pdb 

>  <AUTHOR>  (68) 
    GENERATED BY OPEN BABEL 3.1.1

>  <MASTER>  (68) 
        0    0    0    0    0    0    0    0   56    0   56    0

>  <minimizedAffinity>  (68) 
-7.68365

>  <CNNscore>  (68) 
0.5783557892

>  <CNNaffinity>  (68) 
4.3799319267

>  <CNN_VS>  (68) 
2.5331590176

>  <CNNaffinity_variance>  (68) 
0.4971837997

$$$$
69
     RDKit          3D

 43 45  0  0  0  0  0  0  0  0999 V2000
   17.1039   73.9143   -5.9227 P   0  0  2  0  0  0  0  0  0  0  0  0
   15.8532   73.4960   -6.8606 O   0  0  0  0  0  0  0  0  0  0  0  0
   17.0265   75.2961   -5.3426 O   0  0  0  0  0  0  0  0  0  0  0  0
   18.3990   73.6105   -6.8438 O   0  0  0  0  0  0  0  0  0  0  0  0
   18.2092   73.4117   -8.2327 C   0  0  0  0  0  0  0  0  0  0  0  0
   18.7986   71.1689   -7.6001 O   0  0  0  0  0  0  0  0  0  0  0  0
   19.3644   70.6965  -10.5067 O   0  0  0  0  0  0  0  0  0  0  0  0
   16.9064   69.5603  -10.1859 O   0  0  0  0  0  0  0  0  0  0  0  0
   18.3485   71.4973   -9.9024 C   0  0  1  0  0  0  0  0  0  0  0  0
   17.2644   70.6161   -9.3189 C   0  0  2  0  0  0  0  0  0  0  0  0
   18.9388   72.1435   -8.6565 C   0  0  1  0  0  0  0  0  0  0  0  0
   17.9135   70.1250   -8.0362 C   0  0  2  0  0  0  0  0  0  0  0  0
   19.0107   70.2732  -11.3051 H   0  0  0  0  0  0  0  0  0  0  0  0
   16.4973   69.9244  -10.9871 H   0  0  0  0  0  0  0  0  0  0  0  0
   18.5721   69.2400   -5.4363 O   0  0  0  0  0  0  0  0  0  0  0  0
   14.1479   69.1562   -4.1466 O   0  0  0  0  0  0  0  0  0  0  0  0
   16.9535   69.8641   -7.0013 N   0  0  0  0  0  0  0  0  0  0  0  0
   16.3679   69.1982   -4.7967 N   0  0  0  0  0  0  0  0  0  0  0  0
   17.3890   69.4225   -5.7295 C   0  0  0  0  0  0  0  0  0  0  0  0
   15.5986   70.0473   -7.2498 C   0  0  0  0  0  0  0  0  0  0  0  0
   14.6370   69.8294   -6.3506 C   0  0  0  0  0  0  0  0  0  0  0  0
   15.0073   69.3656   -4.9974 C   0  0  0  0  0  0  0  0  0  0  0  0
   16.6465   68.8883   -3.9047 H   0  0  0  0  0  0  0  0  0  0  0  0
   17.1498   72.7260   -4.8279 O   0  0  0  0  0  0  0  0  0  0  0  0
   17.2460   72.7721   -3.2147 P   0  0  2  0  0  0  0  0  0  0  0  0
   16.7099   71.3109   -2.7703 O   0  0  0  0  0  0  0  0  0  0  0  0
   16.5085   73.9189   -2.5864 O   0  0  0  0  0  0  0  0  0  0  0  0
   18.8275   72.7393   -2.8979 O   0  0  0  0  0  0  0  0  0  0  0  0
   20.7584   72.8119   -4.2674 O   0  0  0  0  0  0  0  0  0  0  0  0
   21.9130   70.1496   -1.3267 O   0  0  0  0  0  0  0  0  0  0  0  0
   19.2277   70.0203   -2.4699 O   0  0  0  0  0  0  0  0  0  0  0  0
   22.9279   72.8737   -1.3091 O   0  0  0  0  0  0  0  0  0  0  0  0
   21.2167   71.2723   -1.8678 C   0  0  2  0  0  0  0  0  0  0  0  0
   20.2917   70.8072   -2.9928 C   0  0  2  0  0  0  0  0  0  0  0  0
   22.2556   72.2585   -2.4063 C   0  0  1  0  0  0  0  0  0  0  0  0
   19.7044   72.0010   -3.7469 C   0  0  1  0  0  0  0  0  0  0  0  0
   21.6032   73.3485   -3.2518 C   0  0  1  0  0  0  0  0  0  0  0  0
   21.2729   69.5092   -0.9783 H   0  0  0  0  0  0  0  0  0  0  0  0
   19.5932   69.2611   -1.9899 H   0  0  0  0  0  0  0  0  0  0  0  0
   23.3474   72.1907   -0.7628 H   0  0  0  0  0  0  0  0  0  0  0  0
   22.9378   75.2700   -3.4195 O   0  0  0  0  0  0  0  0  0  0  0  0
   23.1333   73.7197   -5.0801 O   0  0  0  0  0  0  0  0  0  0  0  0
   22.6312   74.1003   -4.0331 C   0  0  0  0  0  0  0  0  0  0  0  0
  1  4  1  0
  1 24  1  0
  1  2  1  6
  1  3  2  0
 25 28  1  0
 25 24  1  0
 25 26  1  1
 25 27  2  0
  6 11  1  0
  6 12  1  0
 29 36  1  0
 29 37  1  0
  9  7  1  1
  7 13  1  0
 10  8  1  6
  8 14  1  0
  4  5  1  0
 36 28  1  1
 33 30  1  6
 30 38  1  0
 34 31  1  1
 31 39  1  0
 35 32  1  1
 32 40  1  0
 41 43  1  0
 15 19  2  0
 42 43  2  0
 16 22  2  0
 12 17  1  1
 17 19  1  0
 17 20  1  0
 18 19  1  0
 18 22  1  0
 18 23  1  0
  9 10  1  0
  9 11  1  0
 10 12  1  0
 11  5  1  1
 33 34  1  0
 33 35  1  0
 34 36  1  0
 35 37  1  0
 37 43  1  6
 20 21  2  0
 21 22  1  0
M  CHG  3   2  -1  26  -1  41  -1
M  END
>  <COMPND>  (69) 
    udp_gluA.pdb 

>  <AUTHOR>  (69) 
    GENERATED BY OPEN BABEL 3.1.1

>  <MASTER>  (69) 
        0    0    0    0    0    0    0    0   56    0   56    0

>  <minimizedAffinity>  (69) 
-7.42897

>  <CNNscore>  (69) 
0.5492606163

>  <CNNaffinity>  (69) 
4.3798809052

>  <CNN_VS>  (69) 
2.4056961536

>  <CNNaffinity_variance>  (69) 
0.7473542690

$$$$
70
     RDKit          3D

 43 45  0  0  0  0  0  0  0  0999 V2000
   19.6569   72.5858   -5.0855 P   0  0  2  0  0  0  0  0  0  0  0  0
   20.4424   71.7902   -3.9155 O   0  0  0  0  0  0  0  0  0  0  0  0
   18.6483   73.5871   -4.6038 O   0  0  0  0  0  0  0  0  0  0  0  0
   19.0808   71.4097   -6.0357 O   0  0  0  0  0  0  0  0  0  0  0  0
   18.6752   71.7411   -7.3511 C   0  0  0  0  0  0  0  0  0  0  0  0
   17.5789   69.6316   -6.9961 O   0  0  0  0  0  0  0  0  0  0  0  0
   16.8542   69.7300   -9.9042 O   0  0  0  0  0  0  0  0  0  0  0  0
   14.5444   70.5177   -8.6875 O   0  0  0  0  0  0  0  0  0  0  0  0
   16.9446   70.7962   -8.9588 C   0  0  1  0  0  0  0  0  0  0  0  0
   15.7618   70.7609   -8.0143 C   0  0  2  0  0  0  0  0  0  0  0  0
   18.1083   70.4973   -8.0235 C   0  0  1  0  0  0  0  0  0  0  0  0
   16.1444   69.6324   -7.0719 C   0  0  2  0  0  0  0  0  0  0  0  0
   16.1174   69.8987  -10.5128 H   0  0  0  0  0  0  0  0  0  0  0  0
   14.3448   71.2643   -9.2746 H   0  0  0  0  0  0  0  0  0  0  0  0
   13.6259   68.6713   -6.2293 O   0  0  0  0  0  0  0  0  0  0  0  0
   14.1858   70.3878   -1.9885 O   0  0  0  0  0  0  0  0  0  0  0  0
   15.6073   69.8140   -5.7530 N   0  0  0  0  0  0  0  0  0  0  0  0
   13.9067   69.5280   -4.1182 N   0  0  0  0  0  0  0  0  0  0  0  0
   14.3321   69.2917   -5.4321 C   0  0  0  0  0  0  0  0  0  0  0  0
   16.3414   70.5009   -4.7937 C   0  0  0  0  0  0  0  0  0  0  0  0
   15.9228   70.7181   -3.5453 C   0  0  0  0  0  0  0  0  0  0  0  0
   14.6007   70.2060   -3.1291 C   0  0  0  0  0  0  0  0  0  0  0  0
   13.0210   69.1756   -3.8719 H   0  0  0  0  0  0  0  0  0  0  0  0
   20.8577   73.2111   -5.9685 O   0  0  0  0  0  0  0  0  0  0  0  0
   21.4772   74.7037   -6.0120 P   0  0  2  0  0  0  0  0  0  0  0  0
   20.1671   75.6440   -6.1515 O   0  0  0  0  0  0  0  0  0  0  0  0
   22.5055   74.9126   -7.0858 O   0  0  0  0  0  0  0  0  0  0  0  0
   22.0112   74.9691   -4.5130 O   0  0  0  0  0  0  0  0  0  0  0  0
   24.3325   74.5408   -4.3204 O   0  0  0  0  0  0  0  0  0  0  0  0
   23.2896   75.3018   -0.3960 O   0  0  0  0  0  0  0  0  0  0  0  0
   21.5658   73.6669   -2.0960 O   0  0  0  0  0  0  0  0  0  0  0  0
   24.7079   77.3118   -1.9449 O   0  0  0  0  0  0  0  0  0  0  0  0
   23.2064   75.4319   -1.8152 C   0  0  2  0  0  0  0  0  0  0  0  0
   22.8868   74.0718   -2.4360 C   0  0  2  0  0  0  0  0  0  0  0  0
   24.5559   75.9448   -2.3229 C   0  0  1  0  0  0  0  0  0  0  0  0
   23.0160   74.1217   -3.9590 C   0  0  1  0  0  0  0  0  0  0  0  0
   24.6538   75.8452   -3.8424 C   0  0  1  0  0  0  0  0  0  0  0  0
   22.4431   74.9770   -0.0508 H   0  0  0  0  0  0  0  0  0  0  0  0
   21.4766   73.6334   -1.1310 H   0  0  0  0  0  0  0  0  0  0  0  0
   24.6474   77.3891   -0.9799 H   0  0  0  0  0  0  0  0  0  0  0  0
   26.8934   76.1847   -3.2337 O   0  0  0  0  0  0  0  0  0  0  0  0
   26.4316   76.0407   -5.4620 O   0  0  0  0  0  0  0  0  0  0  0  0
   26.0652   76.0306   -4.2963 C   0  0  0  0  0  0  0  0  0  0  0  0
  1  4  1  0
  1 24  1  0
  1  2  1  1
  1  3  2  0
 25 28  1  0
 25 24  1  0
 25 26  1  6
 25 27  2  0
  6 11  1  0
  6 12  1  0
 29 36  1  0
 29 37  1  0
  9  7  1  6
  7 13  1  0
 10  8  1  6
  8 14  1  0
  4  5  1  0
 36 28  1  1
 33 30  1  1
 30 38  1  0
 34 31  1  6
 31 39  1  0
 35 32  1  6
 32 40  1  0
 41 43  1  0
 15 19  2  0
 42 43  2  0
 16 22  2  0
 12 17  1  1
 17 19  1  0
 17 20  1  0
 18 19  1  0
 18 22  1  0
 18 23  1  0
  9 10  1  0
  9 11  1  0
 10 12  1  0
 11  5  1  1
 33 34  1  0
 33 35  1  0
 34 36  1  0
 35 37  1  0
 37 43  1  1
 20 21  2  0
 21 22  1  0
M  CHG  3   2  -1  26  -1  41  -1
M  END
>  <COMPND>  (70) 
    udp_gluA.pdb 

>  <AUTHOR>  (70) 
    GENERATED BY OPEN BABEL 3.1.1

>  <MASTER>  (70) 
        0    0    0    0    0    0    0    0   56    0   56    0

>  <minimizedAffinity>  (70) 
-7.04073

>  <CNNscore>  (70) 
0.5482285023

>  <CNNaffinity>  (70) 
4.3511390686

>  <CNN_VS>  (70) 
2.3854184151

>  <CNNaffinity_variance>  (70) 
0.1844338477

$$$$
71
     RDKit          3D

 43 45  0  0  0  0  0  0  0  0999 V2000
   21.4292   71.6276   -2.4248 P   0  0  2  0  0  0  0  0  0  0  0  0
   22.8309   71.6960   -3.2307 O   0  0  0  0  0  0  0  0  0  0  0  0
   21.3314   70.5203   -1.4167 O   0  0  0  0  0  0  0  0  0  0  0  0
   20.3096   71.6153   -3.5929 O   0  0  0  0  0  0  0  0  0  0  0  0
   19.4405   70.5014   -3.6847 C   0  0  0  0  0  0  0  0  0  0  0  0
   17.5432   71.5627   -4.7101 O   0  0  0  0  0  0  0  0  0  0  0  0
   15.9173   70.3914   -2.4794 O   0  0  0  0  0  0  0  0  0  0  0  0
   15.3996   68.6934   -4.5494 O   0  0  0  0  0  0  0  0  0  0  0  0
   17.0397   69.8379   -3.1666 C   0  0  1  0  0  0  0  0  0  0  0  0
   16.6332   69.3809   -4.5515 C   0  0  2  0  0  0  0  0  0  0  0  0
   18.0069   70.9723   -3.4765 C   0  0  1  0  0  0  0  0  0  0  0  0
   16.5689   70.6950   -5.3111 C   0  0  2  0  0  0  0  0  0  0  0  0
   15.2852   69.6853   -2.2707 H   0  0  0  0  0  0  0  0  0  0  0  0
   15.4926   67.8640   -4.0539 H   0  0  0  0  0  0  0  0  0  0  0  0
   14.6550   70.1791   -7.3229 O   0  0  0  0  0  0  0  0  0  0  0  0
   17.8726   70.1135  -10.6223 O   0  0  0  0  0  0  0  0  0  0  0  0
   16.8790   70.5386   -6.7040 N   0  0  0  0  0  0  0  0  0  0  0  0
   16.2595   70.1459   -8.9641 N   0  0  0  0  0  0  0  0  0  0  0  0
   15.8434   70.2815   -7.6332 C   0  0  0  0  0  0  0  0  0  0  0  0
   18.1953   70.6417   -7.1373 C   0  0  0  0  0  0  0  0  0  0  0  0
   18.5765   70.5101   -8.4094 C   0  0  0  0  0  0  0  0  0  0  0  0
   17.5562   70.2394   -9.4433 C   0  0  0  0  0  0  0  0  0  0  0  0
   15.5565   69.9644   -9.6291 H   0  0  0  0  0  0  0  0  0  0  0  0
   21.2930   73.1150   -1.8067 O   0  0  0  0  0  0  0  0  0  0  0  0
   22.2550   73.9391   -0.8021 P   0  0  2  0  0  0  0  0  0  0  0  0
   23.0357   72.7718    0.0031 O   0  0  0  0  0  0  0  0  0  0  0  0
   21.5330   74.9196    0.0760 O   0  0  0  0  0  0  0  0  0  0  0  0
   23.3774   74.5957   -1.7570 O   0  0  0  0  0  0  0  0  0  0  0  0
   23.0124   76.8500   -2.3848 O   0  0  0  0  0  0  0  0  0  0  0  0
   26.0815   75.7562   -4.9250 O   0  0  0  0  0  0  0  0  0  0  0  0
   23.8600   73.9292   -4.4138 O   0  0  0  0  0  0  0  0  0  0  0  0
   26.6273   77.4343   -2.6148 O   0  0  0  0  0  0  0  0  0  0  0  0
   25.3198   75.7375   -3.7177 C   0  0  2  0  0  0  0  0  0  0  0  0
   23.8879   75.2970   -4.0227 C   0  0  2  0  0  0  0  0  0  0  0  0
   25.3283   77.1510   -3.1312 C   0  0  1  0  0  0  0  0  0  0  0  0
   22.9861   75.4844   -2.8019 C   0  0  1  0  0  0  0  0  0  0  0  0
   24.3128   77.2913   -2.0010 C   0  0  1  0  0  0  0  0  0  0  0  0
   26.0901   74.8683   -5.3158 H   0  0  0  0  0  0  0  0  0  0  0  0
   24.4304   73.8029   -5.1879 H   0  0  0  0  0  0  0  0  0  0  0  0
   27.2832   77.3484   -3.3242 H   0  0  0  0  0  0  0  0  0  0  0  0
   23.6553   79.4159   -2.7463 O   0  0  0  0  0  0  0  0  0  0  0  0
   24.2755   79.2264   -0.5603 O   0  0  0  0  0  0  0  0  0  0  0  0
   24.0923   78.7295   -1.6615 C   0  0  0  0  0  0  0  0  0  0  0  0
  1  4  1  0
  1 24  1  0
  1  2  1  6
  1  3  2  0
 25 28  1  0
 25 24  1  0
 25 26  1  1
 25 27  2  0
  6 11  1  0
  6 12  1  0
 29 36  1  0
 29 37  1  0
  9  7  1  1
  7 13  1  0
 10  8  1  1
  8 14  1  0
  4  5  1  0
 36 28  1  1
 33 30  1  6
 30 38  1  0
 34 31  1  1
 31 39  1  0
 35 32  1  1
 32 40  1  0
 41 43  1  0
 15 19  2  0
 42 43  2  0
 16 22  2  0
 12 17  1  6
 17 19  1  0
 17 20  1  0
 18 19  1  0
 18 22  1  0
 18 23  1  0
  9 10  1  0
  9 11  1  0
 10 12  1  0
 11  5  1  6
 33 34  1  0
 33 35  1  0
 34 36  1  0
 35 37  1  0
 37 43  1  6
 20 21  2  0
 21 22  1  0
M  CHG  3   2  -1  26  -1  41  -1
M  END
>  <COMPND>  (71) 
    udp_gluA.pdb 

>  <AUTHOR>  (71) 
    GENERATED BY OPEN BABEL 3.1.1

>  <MASTER>  (71) 
        0    0    0    0    0    0    0    0   56    0   56    0

>  <minimizedAffinity>  (71) 
-7.09790

>  <CNNscore>  (71) 
0.5390290618

>  <CNNaffinity>  (71) 
4.4924278259

>  <CNN_VS>  (71) 
2.4215490818

>  <CNNaffinity_variance>  (71) 
0.1460863054

$$$$
72
     RDKit          3D

 43 45  0  0  0  0  0  0  0  0999 V2000
   20.4414   73.5430   -7.5406 P   0  0  2  0  0  0  0  0  0  0  0  0
   19.7294   74.9504   -7.9030 O   0  0  0  0  0  0  0  0  0  0  0  0
   21.9406   73.5860   -7.4901 O   0  0  0  0  0  0  0  0  0  0  0  0
   19.8037   72.5006   -8.6011 O   0  0  0  0  0  0  0  0  0  0  0  0
   20.3241   71.1849   -8.6522 C   0  0  0  0  0  0  0  0  0  0  0  0
   18.8721   69.3093   -8.2627 O   0  0  0  0  0  0  0  0  0  0  0  0
   17.3717   70.2021  -10.7005 O   0  0  0  0  0  0  0  0  0  0  0  0
   15.8137   71.1361   -8.6667 O   0  0  0  0  0  0  0  0  0  0  0  0
   18.0120   70.9882   -9.6952 C   0  0  1  0  0  0  0  0  0  0  0  0
   17.1951   70.9755   -8.4206 C   0  0  2  0  0  0  0  0  0  0  0  0
   19.2803   70.2621   -9.2681 C   0  0  1  0  0  0  0  0  0  0  0  0
   17.5316   69.6109   -7.8439 C   0  0  2  0  0  0  0  0  0  0  0  0
   16.5585   70.6459  -10.9893 H   0  0  0  0  0  0  0  0  0  0  0  0
   15.6512   72.0202   -9.0326 H   0  0  0  0  0  0  0  0  0  0  0  0
   15.1877   69.1225   -6.3459 O   0  0  0  0  0  0  0  0  0  0  0  0
   17.4331   69.5668   -2.3452 O   0  0  0  0  0  0  0  0  0  0  0  0
   17.4753   69.5931   -6.4096 N   0  0  0  0  0  0  0  0  0  0  0  0
   16.3081   69.3452   -4.3547 N   0  0  0  0  0  0  0  0  0  0  0  0
   16.2474   69.3379   -5.7545 C   0  0  0  0  0  0  0  0  0  0  0  0
   18.6270   69.8247   -5.6673 C   0  0  0  0  0  0  0  0  0  0  0  0
   18.6692   69.8283   -4.3336 C   0  0  0  0  0  0  0  0  0  0  0  0
   17.4291   69.5711   -3.5725 C   0  0  0  0  0  0  0  0  0  0  0  0
   15.4651   69.1721   -3.8765 H   0  0  0  0  0  0  0  0  0  0  0  0
   19.7325   73.1254   -6.1493 O   0  0  0  0  0  0  0  0  0  0  0  0
   20.1656   73.3936   -4.6150 P   0  0  2  0  0  0  0  0  0  0  0  0
   20.4600   74.9851   -4.5865 O   0  0  0  0  0  0  0  0  0  0  0  0
   21.3093   72.5446   -4.1406 O   0  0  0  0  0  0  0  0  0  0  0  0
   18.8039   73.2161   -3.7683 O   0  0  0  0  0  0  0  0  0  0  0  0
   16.9619   74.3082   -4.7800 O   0  0  0  0  0  0  0  0  0  0  0  0
   15.3403   73.0814   -1.1838 O   0  0  0  0  0  0  0  0  0  0  0  0
   18.0340   74.2072   -1.2862 O   0  0  0  0  0  0  0  0  0  0  0  0
   14.6893   71.6641   -3.6371 O   0  0  0  0  0  0  0  0  0  0  0  0
   16.2004   73.0012   -2.3203 C   0  0  2  0  0  0  0  0  0  0  0  0
   17.1060   74.2322   -2.3645 C   0  0  2  0  0  0  0  0  0  0  0  0
   15.3239   72.9399   -3.5733 C   0  0  1  0  0  0  0  0  0  0  0  0
   17.8770   74.2971   -3.6837 C   0  0  1  0  0  0  0  0  0  0  0  0
   16.1498   73.1378   -4.8411 C   0  0  1  0  0  0  0  0  0  0  0  0
   15.8752   73.1214   -0.3754 H   0  0  0  0  0  0  0  0  0  0  0  0
   17.5517   74.1658   -0.4460 H   0  0  0  0  0  0  0  0  0  0  0  0
   14.1605   71.5257   -2.8358 H   0  0  0  0  0  0  0  0  0  0  0  0
   14.4909   72.3244   -6.2860 O   0  0  0  0  0  0  0  0  0  0  0  0
   15.2337   74.4497   -6.6469 O   0  0  0  0  0  0  0  0  0  0  0  0
   15.2645   73.4046   -6.0147 C   0  0  0  0  0  0  0  0  0  0  0  0
  1  4  1  0
  1 24  1  0
  1  2  1  6
  1  3  2  0
 25 28  1  0
 25 24  1  0
 25 26  1  6
 25 27  2  0
  6 11  1  0
  6 12  1  0
 29 36  1  0
 29 37  1  0
  9  7  1  6
  7 13  1  0
 10  8  1  6
  8 14  1  0
  4  5  1  0
 36 28  1  6
 33 30  1  1
 30 38  1  0
 34 31  1  1
 31 39  1  0
 35 32  1  6
 32 40  1  0
 41 43  1  0
 15 19  2  0
 42 43  2  0
 16 22  2  0
 12 17  1  1
 17 19  1  0
 17 20  1  0
 18 19  1  0
 18 22  1  0
 18 23  1  0
  9 10  1  0
  9 11  1  0
 10 12  1  0
 11  5  1  1
 33 34  1  0
 33 35  1  0
 34 36  1  0
 35 37  1  0
 37 43  1  6
 20 21  2  0
 21 22  1  0
M  CHG  3   2  -1  26  -1  41  -1
M  END
>  <COMPND>  (72) 
    udp_gluA.pdb 

>  <AUTHOR>  (72) 
    GENERATED BY OPEN BABEL 3.1.1

>  <MASTER>  (72) 
        0    0    0    0    0    0    0    0   56    0   56    0

>  <minimizedAffinity>  (72) 
-6.34178

>  <CNNscore>  (72) 
0.5284867287

>  <CNNaffinity>  (72) 
3.9933662415

>  <CNN_VS>  (72) 
2.1104409695

>  <CNNaffinity_variance>  (72) 
0.8427187204

$$$$
73
     RDKit          3D

 43 45  0  0  0  0  0  0  0  0999 V2000
   21.2903   71.1892   -2.3038 P   0  0  2  0  0  0  0  0  0  0  0  0
   21.3061   69.6459   -2.7905 O   0  0  0  0  0  0  0  0  0  0  0  0
   21.7467   71.4130   -0.8919 O   0  0  0  0  0  0  0  0  0  0  0  0
   19.7896   71.6888   -2.6446 O   0  0  0  0  0  0  0  0  0  0  0  0
   19.1744   71.2211   -3.8309 C   0  0  0  0  0  0  0  0  0  0  0  0
   17.0696   71.6198   -4.9212 O   0  0  0  0  0  0  0  0  0  0  0  0
   15.8154   70.1471   -2.6300 O   0  0  0  0  0  0  0  0  0  0  0  0
   15.8589   68.2606   -4.5985 O   0  0  0  0  0  0  0  0  0  0  0  0
   17.0640   69.9110   -3.2809 C   0  0  1  0  0  0  0  0  0  0  0  0
   16.8365   69.2791   -4.6378 C   0  0  2  0  0  0  0  0  0  0  0  0
   17.6619   71.2606   -3.6541 C   0  0  1  0  0  0  0  0  0  0  0  0
   16.4045   70.4724   -5.4729 C   0  0  2  0  0  0  0  0  0  0  0  0
   15.4142   69.2991   -2.3820 H   0  0  0  0  0  0  0  0  0  0  0  0
   16.1813   67.5238   -4.0553 H   0  0  0  0  0  0  0  0  0  0  0  0
   14.5801   70.5531   -7.6273 O   0  0  0  0  0  0  0  0  0  0  0  0
   17.9345   69.9439  -10.7291 O   0  0  0  0  0  0  0  0  0  0  0  0
   16.7740   70.3375   -6.8536 N   0  0  0  0  0  0  0  0  0  0  0  0
   16.2524   70.2486   -9.1701 N   0  0  0  0  0  0  0  0  0  0  0  0
   15.7799   70.3923   -7.8589 C   0  0  0  0  0  0  0  0  0  0  0  0
   18.1073   70.1551   -7.2001 C   0  0  0  0  0  0  0  0  0  0  0  0
   18.5424   70.0198   -8.4544 C   0  0  0  0  0  0  0  0  0  0  0  0
   17.5678   70.0645   -9.5641 C   0  0  0  0  0  0  0  0  0  0  0  0
   15.5785   70.2813   -9.8871 H   0  0  0  0  0  0  0  0  0  0  0  0
   22.1846   71.9329   -3.4264 O   0  0  0  0  0  0  0  0  0  0  0  0
   22.5113   73.4993   -3.6567 P   0  0  2  0  0  0  0  0  0  0  0  0
   21.0432   74.1671   -3.7944 O   0  0  0  0  0  0  0  0  0  0  0  0
   23.4265   73.7737   -4.8148 O   0  0  0  0  0  0  0  0  0  0  0  0
   23.0618   74.0165   -2.2313 O   0  0  0  0  0  0  0  0  0  0  0  0
   21.9580   74.7383   -0.2641 O   0  0  0  0  0  0  0  0  0  0  0  0
   25.2608   77.2193   -0.3333 O   0  0  0  0  0  0  0  0  0  0  0  0
   23.7907   76.6417   -2.7909 O   0  0  0  0  0  0  0  0  0  0  0  0
   25.1577   74.9783    1.5155 O   0  0  0  0  0  0  0  0  0  0  0  0
   24.5303   76.0152   -0.5668 C   0  0  2  0  0  0  0  0  0  0  0  0
   23.3415   76.3073   -1.4828 C   0  0  2  0  0  0  0  0  0  0  0  0
   24.0436   75.4876    0.7848 C   0  0  1  0  0  0  0  0  0  0  0  0
   22.4085   75.0988   -1.5705 C   0  0  1  0  0  0  0  0  0  0  0  0
   23.0215   74.3680    0.6106 C   0  0  1  0  0  0  0  0  0  0  0  0
   25.5800   77.5730   -1.1784 H   0  0  0  0  0  0  0  0  0  0  0  0
   24.3835   77.4076   -2.7428 H   0  0  0  0  0  0  0  0  0  0  0  0
   25.8158   75.6810    1.6332 H   0  0  0  0  0  0  0  0  0  0  0  0
   21.1154   73.5016    1.6676 O   0  0  0  0  0  0  0  0  0  0  0  0
   22.7536   74.3489    3.0083 O   0  0  0  0  0  0  0  0  0  0  0  0
   22.3158   74.0891    1.8975 C   0  0  0  0  0  0  0  0  0  0  0  0
  1  4  1  0
  1 24  1  0
  1  2  1  6
  1  3  2  0
 25 28  1  0
 25 24  1  0
 25 26  1  6
 25 27  2  0
  6 11  1  0
  6 12  1  0
 29 36  1  0
 29 37  1  0
  9  7  1  6
  7 13  1  0
 10  8  1  1
  8 14  1  0
  4  5  1  0
 36 28  1  1
 33 30  1  1
 30 38  1  0
 34 31  1  6
 31 39  1  0
 35 32  1  1
 32 40  1  0
 41 43  1  0
 15 19  2  0
 42 43  2  0
 16 22  2  0
 12 17  1  6
 17 19  1  0
 17 20  1  0
 18 19  1  0
 18 22  1  0
 18 23  1  0
  9 10  1  0
  9 11  1  0
 10 12  1  0
 11  5  1  6
 33 34  1  0
 33 35  1  0
 34 36  1  0
 35 37  1  0
 37 43  1  1
 20 21  2  0
 21 22  1  0
M  CHG  3   2  -1  26  -1  41  -1
M  END
>  <COMPND>  (73) 
    udp_gluA.pdb 

>  <AUTHOR>  (73) 
    GENERATED BY OPEN BABEL 3.1.1

>  <MASTER>  (73) 
        0    0    0    0    0    0    0    0   56    0   56    0

>  <minimizedAffinity>  (73) 
-7.82508

>  <CNNscore>  (73) 
0.5056946278

>  <CNNaffinity>  (73) 
4.4216375351

>  <CNN_VS>  (73) 
2.2359983921

>  <CNNaffinity_variance>  (73) 
0.1220538169

$$$$
74
     RDKit          3D

 43 45  0  0  0  0  0  0  0  0999 V2000
   21.0320   73.5600   -6.8088 P   0  0  2  0  0  0  0  0  0  0  0  0
   20.2351   74.9620   -6.9437 O   0  0  0  0  0  0  0  0  0  0  0  0
   22.2722   73.4529   -7.6468 O   0  0  0  0  0  0  0  0  0  0  0  0
   19.8977   72.4401   -7.0863 O   0  0  0  0  0  0  0  0  0  0  0  0
   19.0545   72.5965   -8.2129 C   0  0  0  0  0  0  0  0  0  0  0  0
   18.5097   70.3359   -7.6042 O   0  0  0  0  0  0  0  0  0  0  0  0
   17.3117   70.0846  -10.3416 O   0  0  0  0  0  0  0  0  0  0  0  0
   15.1195   70.4615   -8.7640 O   0  0  0  0  0  0  0  0  0  0  0  0
   17.3259   71.2085   -9.4611 C   0  0  1  0  0  0  0  0  0  0  0  0
   16.3505   70.9952   -8.3230 C   0  0  2  0  0  0  0  0  0  0  0  0
   18.6645   71.2199   -8.7355 C   0  0  1  0  0  0  0  0  0  0  0  0
   17.1160   70.0365   -7.4270 C   0  0  2  0  0  0  0  0  0  0  0  0
   16.4659   70.0563  -10.8165 H   0  0  0  0  0  0  0  0  0  0  0  0
   14.6706   71.1093   -9.3304 H   0  0  0  0  0  0  0  0  0  0  0  0
   16.4277   67.9081   -5.7029 O   0  0  0  0  0  0  0  0  0  0  0  0
   15.8347   70.7551   -2.1271 O   0  0  0  0  0  0  0  0  0  0  0  0
   16.7773   70.1932   -6.0408 N   0  0  0  0  0  0  0  0  0  0  0  0
   16.1320   69.3282   -3.9239 N   0  0  0  0  0  0  0  0  0  0  0  0
   16.4464   69.0589   -5.2624 C   0  0  0  0  0  0  0  0  0  0  0  0
   16.7767   71.4583   -5.4658 C   0  0  0  0  0  0  0  0  0  0  0  0
   16.4749   71.6991   -4.1884 C   0  0  0  0  0  0  0  0  0  0  0  0
   16.1170   70.5686   -3.3068 C   0  0  0  0  0  0  0  0  0  0  0  0
   15.8963   68.5544   -3.3626 H   0  0  0  0  0  0  0  0  0  0  0  0
   21.2824   73.4367   -5.2166 O   0  0  0  0  0  0  0  0  0  0  0  0
   20.2437   73.2787   -3.9879 P   0  0  2  0  0  0  0  0  0  0  0  0
   20.0123   71.6788   -3.9027 O   0  0  0  0  0  0  0  0  0  0  0  0
   18.9826   74.0787   -4.1409 O   0  0  0  0  0  0  0  0  0  0  0  0
   21.1077   73.6357   -2.6731 O   0  0  0  0  0  0  0  0  0  0  0  0
   23.3877   74.1773   -3.0159 O   0  0  0  0  0  0  0  0  0  0  0  0
   23.2568   73.6438    1.0787 O   0  0  0  0  0  0  0  0  0  0  0  0
   21.8323   71.8151   -0.6992 O   0  0  0  0  0  0  0  0  0  0  0  0
   23.3876   76.3237   -0.0401 O   0  0  0  0  0  0  0  0  0  0  0  0
   22.7486   74.0065   -0.2051 C   0  0  2  0  0  0  0  0  0  0  0  0
   22.7765   72.7888   -1.1292 C   0  0  2  0  0  0  0  0  0  0  0  0
   23.6342   75.1211   -0.7665 C   0  0  1  0  0  0  0  0  0  0  0  0
   22.4584   73.1885   -2.5707 C   0  0  1  0  0  0  0  0  0  0  0  0
   23.3421   75.3744   -2.2427 C   0  0  1  0  0  0  0  0  0  0  0  0
   22.7097   72.9365    1.4552 H   0  0  0  0  0  0  0  0  0  0  0  0
   22.0280   71.5570    0.2148 H   0  0  0  0  0  0  0  0  0  0  0  0
   23.5696   76.1759    0.9011 H   0  0  0  0  0  0  0  0  0  0  0  0
   25.0268   75.5423   -3.8660 O   0  0  0  0  0  0  0  0  0  0  0  0
   24.7034   77.3482   -2.5120 O   0  0  0  0  0  0  0  0  0  0  0  0
   24.4140   76.2130   -2.8592 C   0  0  0  0  0  0  0  0  0  0  0  0
  1  4  1  0
  1 24  1  0
  1  2  1  1
  1  3  2  0
 25 28  1  0
 25 24  1  0
 25 26  1  1
 25 27  2  0
  6 11  1  0
  6 12  1  0
 29 36  1  0
 29 37  1  0
  9  7  1  6
  7 13  1  0
 10  8  1  6
  8 14  1  0
  4  5  1  0
 36 28  1  1
 33 30  1  1
 30 38  1  0
 34 31  1  1
 31 39  1  0
 35 32  1  1
 32 40  1  0
 41 43  1  0
 15 19  2  0
 42 43  2  0
 16 22  2  0
 12 17  1  1
 17 19  1  0
 17 20  1  0
 18 19  1  0
 18 22  1  0
 18 23  1  0
  9 10  1  0
  9 11  1  0
 10 12  1  0
 11  5  1  1
 33 34  1  0
 33 35  1  0
 34 36  1  0
 35 37  1  0
 37 43  1  6
 20 21  2  0
 21 22  1  0
M  CHG  3   2  -1  26  -1  41  -1
M  END
>  <COMPND>  (74) 
    udp_gluA.pdb 

>  <AUTHOR>  (74) 
    GENERATED BY OPEN BABEL 3.1.1

>  <MASTER>  (74) 
        0    0    0    0    0    0    0    0   56    0   56    0

>  <minimizedAffinity>  (74) 
-7.20815

>  <CNNscore>  (74) 
0.4965472519

>  <CNNaffinity>  (74) 
4.3050761223

>  <CNN_VS>  (74) 
2.1376736164

>  <CNNaffinity_variance>  (74) 
0.2767450213

$$$$
75
     RDKit          3D

 43 45  0  0  0  0  0  0  0  0999 V2000
   17.1169   72.4731   -3.8310 P   0  0  2  0  0  0  0  0  0  0  0  0
   16.0070   72.6756   -2.6709 O   0  0  0  0  0  0  0  0  0  0  0  0
   18.0284   73.6453   -4.0474 O   0  0  0  0  0  0  0  0  0  0  0  0
   16.2535   72.0076   -5.1178 O   0  0  0  0  0  0  0  0  0  0  0  0
   15.5995   72.9995   -5.8879 C   0  0  0  0  0  0  0  0  0  0  0  0
   16.4334   73.0018   -8.1423 O   0  0  0  0  0  0  0  0  0  0  0  0
   14.7802   70.5350   -8.5587 O   0  0  0  0  0  0  0  0  0  0  0  0
   17.2872   69.5203   -8.2103 O   0  0  0  0  0  0  0  0  0  0  0  0
   15.4997   70.9555   -7.3994 C   0  0  1  0  0  0  0  0  0  0  0  0
   16.9869   70.7612   -7.6065 C   0  0  2  0  0  0  0  0  0  0  0  0
   15.3871   72.4707   -7.3006 C   0  0  1  0  0  0  0  0  0  0  0  0
   17.3389   71.9434   -8.4933 C   0  0  2  0  0  0  0  0  0  0  0  0
   14.8378   69.5700   -8.6430 H   0  0  0  0  0  0  0  0  0  0  0  0
   17.0452   68.8000   -7.6064 H   0  0  0  0  0  0  0  0  0  0  0  0
   19.5766   70.9676   -9.9135 O   0  0  0  0  0  0  0  0  0  0  0  0
   22.4620   73.7540   -7.6431 O   0  0  0  0  0  0  0  0  0  0  0  0
   18.6864   72.3963   -8.2934 N   0  0  0  0  0  0  0  0  0  0  0  0
   21.0117   72.3556   -8.7807 N   0  0  0  0  0  0  0  0  0  0  0  0
   19.7387   71.8408   -9.0590 C   0  0  0  0  0  0  0  0  0  0  0  0
   18.9545   73.3805   -7.3497 C   0  0  0  0  0  0  0  0  0  0  0  0
   20.1732   73.8612   -7.0957 C   0  0  0  0  0  0  0  0  0  0  0  0
   21.3280   73.3335   -7.8515 C   0  0  0  0  0  0  0  0  0  0  0  0
   21.7607   71.9828   -9.2997 H   0  0  0  0  0  0  0  0  0  0  0  0
   17.8651   71.1119   -3.3838 O   0  0  0  0  0  0  0  0  0  0  0  0
   19.3516   70.5631   -3.7047 P   0  0  2  0  0  0  0  0  0  0  0  0
   19.4069   70.5694   -5.3225 O   0  0  0  0  0  0  0  0  0  0  0  0
   19.6655   69.2343   -3.0804 O   0  0  0  0  0  0  0  0  0  0  0  0
   20.3354   71.7614   -3.2590 O   0  0  0  0  0  0  0  0  0  0  0  0
   22.3497   72.6698   -4.1112 O   0  0  0  0  0  0  0  0  0  0  0  0
   23.0506   72.7429   -0.0404 O   0  0  0  0  0  0  0  0  0  0  0  0
   21.7673   70.4301   -1.2808 O   0  0  0  0  0  0  0  0  0  0  0  0
   22.4038   75.1994   -1.4540 O   0  0  0  0  0  0  0  0  0  0  0  0
   22.2610   72.8049   -1.2281 C   0  0  2  0  0  0  0  0  0  0  0  0
   22.3899   71.4900   -1.9975 C   0  0  2  0  0  0  0  0  0  0  0  0
   22.7738   73.9706   -2.0766 C   0  0  1  0  0  0  0  0  0  0  0  0
   21.7475   71.6004   -3.3810 C   0  0  1  0  0  0  0  0  0  0  0  0
   22.1821   73.9387   -3.4828 C   0  0  1  0  0  0  0  0  0  0  0  0
   22.7428   72.0092    0.5148 H   0  0  0  0  0  0  0  0  0  0  0  0
   22.1699   70.3545   -0.4018 H   0  0  0  0  0  0  0  0  0  0  0  0
   22.7740   75.2323   -0.5581 H   0  0  0  0  0  0  0  0  0  0  0  0
   22.0808   75.7719   -4.9425 O   0  0  0  0  0  0  0  0  0  0  0  0
   24.1249   74.8171   -4.6120 O   0  0  0  0  0  0  0  0  0  0  0  0
   22.9240   74.8638   -4.3917 C   0  0  0  0  0  0  0  0  0  0  0  0
  1  4  1  0
  1 24  1  0
  1  2  1  1
  1  3  2  0
 25 28  1  0
 25 24  1  0
 25 26  1  6
 25 27  2  0
  6 11  1  0
  6 12  1  0
 29 36  1  0
 29 37  1  0
  9  7  1  6
  7 13  1  0
 10  8  1  6
  8 14  1  0
  4  5  1  0
 36 28  1  1
 33 30  1  1
 30 38  1  0
 34 31  1  1
 31 39  1  0
 35 32  1  1
 32 40  1  0
 41 43  1  0
 15 19  2  0
 42 43  2  0
 16 22  2  0
 12 17  1  1
 17 19  1  0
 17 20  1  0
 18 19  1  0
 18 22  1  0
 18 23  1  0
  9 10  1  0
  9 11  1  0
 10 12  1  0
 11  5  1  1
 33 34  1  0
 33 35  1  0
 34 36  1  0
 35 37  1  0
 37 43  1  6
 20 21  2  0
 21 22  1  0
M  CHG  3   2  -1  26  -1  41  -1
M  END
>  <COMPND>  (75) 
    udp_gluA.pdb 

>  <AUTHOR>  (75) 
    GENERATED BY OPEN BABEL 3.1.1

>  <MASTER>  (75) 
        0    0    0    0    0    0    0    0   56    0   56    0

>  <minimizedAffinity>  (75) 
-7.75087

>  <CNNscore>  (75) 
0.4811366200

>  <CNNaffinity>  (75) 
4.2206258774

>  <CNN_VS>  (75) 
2.0306975842

>  <CNNaffinity_variance>  (75) 
0.4685910344

$$$$
76
     RDKit          3D

 43 45  0  0  0  0  0  0  0  0999 V2000
   21.2688   71.4464   -2.1328 P   0  0  2  0  0  0  0  0  0  0  0  0
   22.3002   71.3204   -3.3734 O   0  0  0  0  0  0  0  0  0  0  0  0
   21.9073   71.4399   -0.7749 O   0  0  0  0  0  0  0  0  0  0  0  0
   20.1871   70.2746   -2.4062 O   0  0  0  0  0  0  0  0  0  0  0  0
   19.4959   70.2674   -3.6418 C   0  0  0  0  0  0  0  0  0  0  0  0
   17.6504   71.4409   -4.6392 O   0  0  0  0  0  0  0  0  0  0  0  0
   15.9665   70.2740   -2.4496 O   0  0  0  0  0  0  0  0  0  0  0  0
   15.3837   68.6639   -4.5719 O   0  0  0  0  0  0  0  0  0  0  0  0
   17.0666   69.6934   -3.1505 C   0  0  1  0  0  0  0  0  0  0  0  0
   16.6460   69.2969   -4.5499 C   0  0  2  0  0  0  0  0  0  0  0  0
   18.0832   70.7936   -3.4230 C   0  0  1  0  0  0  0  0  0  0  0  0
   16.6418   70.6352   -5.2690 C   0  0  2  0  0  0  0  0  0  0  0  0
   15.3035   69.5900   -2.2643 H   0  0  0  0  0  0  0  0  0  0  0  0
   15.4387   67.8166   -4.1019 H   0  0  0  0  0  0  0  0  0  0  0  0
   14.7243   70.1718   -7.2901 O   0  0  0  0  0  0  0  0  0  0  0  0
   17.9394   70.1644  -10.5927 O   0  0  0  0  0  0  0  0  0  0  0  0
   16.9503   70.5080   -6.6652 N   0  0  0  0  0  0  0  0  0  0  0  0
   16.3275   70.1675   -8.9329 N   0  0  0  0  0  0  0  0  0  0  0  0
   15.9128   70.2758   -7.5990 C   0  0  0  0  0  0  0  0  0  0  0  0
   18.2667   70.6147   -7.0972 C   0  0  0  0  0  0  0  0  0  0  0  0
   18.6465   70.5094   -8.3721 C   0  0  0  0  0  0  0  0  0  0  0  0
   17.6242   70.2659   -9.4109 C   0  0  0  0  0  0  0  0  0  0  0  0
   15.6233   70.0038   -9.6012 H   0  0  0  0  0  0  0  0  0  0  0  0
   20.4434   72.7916   -2.4822 O   0  0  0  0  0  0  0  0  0  0  0  0
   20.9278   74.3274   -2.6241 P   0  0  2  0  0  0  0  0  0  0  0  0
   22.5388   74.2192   -2.5093 O   0  0  0  0  0  0  0  0  0  0  0  0
   20.2989   75.2654   -1.6348 O   0  0  0  0  0  0  0  0  0  0  0  0
   20.6539   74.7019   -4.1692 O   0  0  0  0  0  0  0  0  0  0  0  0
   19.1322   73.8482   -5.7707 O   0  0  0  0  0  0  0  0  0  0  0  0
   22.4461   74.6498   -8.1037 O   0  0  0  0  0  0  0  0  0  0  0  0
   22.7507   73.4198   -5.4715 O   0  0  0  0  0  0  0  0  0  0  0  0
   20.1403   76.4182   -8.1875 O   0  0  0  0  0  0  0  0  0  0  0  0
   21.5389   74.8427   -7.0185 C   0  0  2  0  0  0  0  0  0  0  0  0
   21.5095   73.5870   -6.1468 C   0  0  2  0  0  0  0  0  0  0  0  0
   20.1520   75.1165   -7.6044 C   0  0  1  0  0  0  0  0  0  0  0  0
   20.3861   73.6655   -5.1120 C   0  0  1  0  0  0  0  0  0  0  0  0
   19.0708   75.0538   -6.5295 C   0  0  1  0  0  0  0  0  0  0  0  0
   23.3345   74.4741   -7.7555 H   0  0  0  0  0  0  0  0  0  0  0  0
   23.4680   73.3695   -6.1221 H   0  0  0  0  0  0  0  0  0  0  0  0
   20.8242   76.4715   -8.8733 H   0  0  0  0  0  0  0  0  0  0  0  0
   17.3554   76.2043   -7.6409 O   0  0  0  0  0  0  0  0  0  0  0  0
   17.0121   73.9926   -7.2055 O   0  0  0  0  0  0  0  0  0  0  0  0
   17.7117   74.9927   -7.1470 C   0  0  0  0  0  0  0  0  0  0  0  0
  1  4  1  0
  1 24  1  0
  1  2  1  6
  1  3  2  0
 25 28  1  0
 25 24  1  0
 25 26  1  6
 25 27  2  0
  6 11  1  0
  6 12  1  0
 29 36  1  0
 29 37  1  0
  9  7  1  1
  7 13  1  0
 10  8  1  1
  8 14  1  0
  4  5  1  0
 36 28  1  1
 33 30  1  6
 30 38  1  0
 34 31  1  1
 31 39  1  0
 35 32  1  1
 32 40  1  0
 41 43  1  0
 15 19  2  0
 42 43  2  0
 16 22  2  0
 12 17  1  6
 17 19  1  0
 17 20  1  0
 18 19  1  0
 18 22  1  0
 18 23  1  0
  9 10  1  0
  9 11  1  0
 10 12  1  0
 11  5  1  6
 33 34  1  0
 33 35  1  0
 34 36  1  0
 35 37  1  0
 37 43  1  6
 20 21  2  0
 21 22  1  0
M  CHG  3   2  -1  26  -1  41  -1
M  END
>  <COMPND>  (76) 
    udp_gluA.pdb 

>  <AUTHOR>  (76) 
    GENERATED BY OPEN BABEL 3.1.1

>  <MASTER>  (76) 
        0    0    0    0    0    0    0    0   56    0   56    0

>  <minimizedAffinity>  (76) 
-7.56004

>  <CNNscore>  (76) 
0.4690403640

>  <CNNaffinity>  (76) 
4.1044502258

>  <CNN_VS>  (76) 
1.9251527786

>  <CNNaffinity_variance>  (76) 
0.7511164546

$$$$
77
     RDKit          3D

 43 45  0  0  0  0  0  0  0  0999 V2000
   19.1077   73.5055   -7.7557 P   0  0  2  0  0  0  0  0  0  0  0  0
   18.6518   74.8874   -8.4637 O   0  0  0  0  0  0  0  0  0  0  0  0
   20.3481   73.6025   -6.9168 O   0  0  0  0  0  0  0  0  0  0  0  0
   19.1659   72.4445   -8.9759 O   0  0  0  0  0  0  0  0  0  0  0  0
   19.8763   71.2346   -8.7865 C   0  0  0  0  0  0  0  0  0  0  0  0
   18.7719   69.1961   -8.1520 O   0  0  0  0  0  0  0  0  0  0  0  0
   17.1649   69.5030  -10.6650 O   0  0  0  0  0  0  0  0  0  0  0  0
   15.4449   70.3933   -8.7453 O   0  0  0  0  0  0  0  0  0  0  0  0
   17.6462   70.5076   -9.7718 C   0  0  1  0  0  0  0  0  0  0  0  0
   16.8302   70.5094   -8.4964 C   0  0  2  0  0  0  0  0  0  0  0  0
   19.0175   70.0739   -9.2720 C   0  0  1  0  0  0  0  0  0  0  0  0
   17.3947   69.3070   -7.7591 C   0  0  2  0  0  0  0  0  0  0  0  0
   16.2897   69.7580  -10.9975 H   0  0  0  0  0  0  0  0  0  0  0  0
   15.1337   71.1829   -9.2161 H   0  0  0  0  0  0  0  0  0  0  0  0
   15.0687   68.8678   -6.2185 O   0  0  0  0  0  0  0  0  0  0  0  0
   17.2494   69.9133   -2.2948 O   0  0  0  0  0  0  0  0  0  0  0  0
   17.3266   69.4572   -6.3330 N   0  0  0  0  0  0  0  0  0  0  0  0
   16.1568   69.3900   -4.2659 N   0  0  0  0  0  0  0  0  0  0  0  0
   16.1092   69.2124   -5.6548 C   0  0  0  0  0  0  0  0  0  0  0  0
   18.4567   69.8410   -5.6213 C   0  0  0  0  0  0  0  0  0  0  0  0
   18.4867   70.0061   -4.2974 C   0  0  0  0  0  0  0  0  0  0  0  0
   17.2562   69.7711   -3.5138 C   0  0  0  0  0  0  0  0  0  0  0  0
   15.3207   69.2273   -3.7722 H   0  0  0  0  0  0  0  0  0  0  0  0
   17.7816   73.0573   -6.9474 O   0  0  0  0  0  0  0  0  0  0  0  0
   16.7709   73.9050   -6.0127 P   0  0  2  0  0  0  0  0  0  0  0  0
   17.6945   75.1224   -5.4785 O   0  0  0  0  0  0  0  0  0  0  0  0
   16.1172   73.1018   -4.9259 O   0  0  0  0  0  0  0  0  0  0  0  0
   15.7422   74.5971   -7.0449 O   0  0  0  0  0  0  0  0  0  0  0  0
   13.4507   74.0725   -7.3325 O   0  0  0  0  0  0  0  0  0  0  0  0
   14.4573   75.5197  -11.0689 O   0  0  0  0  0  0  0  0  0  0  0  0
   16.2699   73.7327   -9.6353 O   0  0  0  0  0  0  0  0  0  0  0  0
   12.9189   77.1662   -9.2322 O   0  0  0  0  0  0  0  0  0  0  0  0
   14.5289   75.4222   -9.6465 C   0  0  2  0  0  0  0  0  0  0  0  0
   14.9265   74.0001   -9.2503 C   0  0  2  0  0  0  0  0  0  0  0  0
   13.1502   75.7671   -9.0788 C   0  0  1  0  0  0  0  0  0  0  0  0
   14.7905   73.7943   -7.7410 C   0  0  1  0  0  0  0  0  0  0  0  0
   13.0543   75.4165   -7.5968 C   0  0  1  0  0  0  0  0  0  0  0  0
   15.3224   75.3047  -11.4519 H   0  0  0  0  0  0  0  0  0  0  0  0
   16.3635   73.8616  -10.5919 H   0  0  0  0  0  0  0  0  0  0  0  0
   12.9773   77.4025  -10.1711 H   0  0  0  0  0  0  0  0  0  0  0  0
   11.1651   76.7161   -7.1033 O   0  0  0  0  0  0  0  0  0  0  0  0
   10.9756   74.4602   -6.8313 O   0  0  0  0  0  0  0  0  0  0  0  0
   11.6333   75.4438   -7.1361 C   0  0  0  0  0  0  0  0  0  0  0  0
  1  4  1  0
  1 24  1  0
  1  2  1  6
  1  3  2  0
 25 28  1  0
 25 24  1  0
 25 26  1  1
 25 27  2  0
  6 11  1  0
  6 12  1  0
 29 36  1  0
 29 37  1  0
  9  7  1  6
  7 13  1  0
 10  8  1  6
  8 14  1  0
  4  5  1  0
 36 28  1  1
 33 30  1  6
 30 38  1  0
 34 31  1  1
 31 39  1  0
 35 32  1  1
 32 40  1  0
 41 43  1  0
 15 19  2  0
 42 43  2  0
 16 22  2  0
 12 17  1  1
 17 19  1  0
 17 20  1  0
 18 19  1  0
 18 22  1  0
 18 23  1  0
  9 10  1  0
  9 11  1  0
 10 12  1  0
 11  5  1  1
 33 34  1  0
 33 35  1  0
 34 36  1  0
 35 37  1  0
 37 43  1  6
 20 21  2  0
 21 22  1  0
M  CHG  3   2  -1  26  -1  41  -1
M  END
>  <COMPND>  (77) 
    udp_gluA.pdb 

>  <AUTHOR>  (77) 
    GENERATED BY OPEN BABEL 3.1.1

>  <MASTER>  (77) 
        0    0    0    0    0    0    0    0   56    0   56    0

>  <minimizedAffinity>  (77) 
-6.85430

>  <CNNscore>  (77) 
0.4580681026

>  <CNNaffinity>  (77) 
3.9252562523

>  <CNN_VS>  (77) 
1.7980346680

>  <CNNaffinity_variance>  (77) 
0.6569174528

$$$$
78
     RDKit          3D

 43 45  0  0  0  0  0  0  0  0999 V2000
   19.9341   72.5107   -5.1086 P   0  0  2  0  0  0  0  0  0  0  0  0
   18.5036   73.1746   -4.7453 O   0  0  0  0  0  0  0  0  0  0  0  0
   21.0321   73.4914   -5.3993 O   0  0  0  0  0  0  0  0  0  0  0  0
   19.5885   71.4699   -6.2983 O   0  0  0  0  0  0  0  0  0  0  0  0
   18.6235   71.8438   -7.2645 C   0  0  0  0  0  0  0  0  0  0  0  0
   17.5695   69.7116   -6.9176 O   0  0  0  0  0  0  0  0  0  0  0  0
   16.8613   69.7966   -9.8301 O   0  0  0  0  0  0  0  0  0  0  0  0
   14.5278   70.5350   -8.6277 O   0  0  0  0  0  0  0  0  0  0  0  0
   16.9233   70.8639   -8.8837 C   0  0  1  0  0  0  0  0  0  0  0  0
   15.7356   70.8032   -7.9467 C   0  0  2  0  0  0  0  0  0  0  0  0
   18.0871   70.5889   -7.9411 C   0  0  1  0  0  0  0  0  0  0  0  0
   16.1358   69.6824   -7.0024 C   0  0  2  0  0  0  0  0  0  0  0  0
   16.1251   69.9502  -10.4433 H   0  0  0  0  0  0  0  0  0  0  0  0
   14.3164   71.2776   -9.2157 H   0  0  0  0  0  0  0  0  0  0  0  0
   13.6593   68.6186   -6.1588 O   0  0  0  0  0  0  0  0  0  0  0  0
   14.1283   70.3959   -1.9321 O   0  0  0  0  0  0  0  0  0  0  0  0
   15.5867   69.8519   -5.6869 N   0  0  0  0  0  0  0  0  0  0  0  0
   13.8948   69.5057   -4.0548 N   0  0  0  0  0  0  0  0  0  0  0  0
   14.3346   69.2766   -5.3652 C   0  0  0  0  0  0  0  0  0  0  0  0
   16.2864   70.5790   -4.7316 C   0  0  0  0  0  0  0  0  0  0  0  0
   15.8544   70.7887   -3.4866 C   0  0  0  0  0  0  0  0  0  0  0  0
   14.5547   70.2224   -3.0697 C   0  0  0  0  0  0  0  0  0  0  0  0
   13.0246   69.1167   -3.8080 H   0  0  0  0  0  0  0  0  0  0  0  0
   20.2147   71.5402   -3.8468 O   0  0  0  0  0  0  0  0  0  0  0  0
   21.3073   71.6328   -2.6588 P   0  0  2  0  0  0  0  0  0  0  0  0
   22.7180   71.6315   -3.4527 O   0  0  0  0  0  0  0  0  0  0  0  0
   21.1809   70.5557   -1.6206 O   0  0  0  0  0  0  0  0  0  0  0  0
   21.1635   73.1343   -2.0867 O   0  0  0  0  0  0  0  0  0  0  0  0
   21.2777   73.3092    0.2725 O   0  0  0  0  0  0  0  0  0  0  0  0
   20.0557   77.1089   -0.7941 O   0  0  0  0  0  0  0  0  0  0  0  0
   18.9085   74.7624   -2.1027 O   0  0  0  0  0  0  0  0  0  0  0  0
   22.8080   76.6338    0.0122 O   0  0  0  0  0  0  0  0  0  0  0  0
   20.7397   75.8664   -0.9564 C   0  0  2  0  0  0  0  0  0  0  0  0
   19.7285   74.7197   -0.9407 C   0  0  2  0  0  0  0  0  0  0  0  0
   21.7310   75.7177    0.2000 C   0  0  1  0  0  0  0  0  0  0  0  0
   20.4375   73.3659   -0.8809 C   0  0  1  0  0  0  0  0  0  0  0  0
   22.2999   74.3033    0.2677 C   0  0  1  0  0  0  0  0  0  0  0  0
   19.4201   77.2252   -1.5177 H   0  0  0  0  0  0  0  0  0  0  0  0
   18.4558   75.6189   -2.1472 H   0  0  0  0  0  0  0  0  0  0  0  0
   22.4594   77.5378   -0.0328 H   0  0  0  0  0  0  0  0  0  0  0  0
   22.1461   74.2620    2.6078 O   0  0  0  0  0  0  0  0  0  0  0  0
   24.1712   73.7574    1.6895 O   0  0  0  0  0  0  0  0  0  0  0  0
   22.9972   74.0738    1.5690 C   0  0  0  0  0  0  0  0  0  0  0  0
  1  4  1  0
  1 24  1  0
  1  2  1  1
  1  3  2  0
 25 28  1  0
 25 24  1  0
 25 26  1  6
 25 27  2  0
  6 11  1  0
  6 12  1  0
 29 36  1  0
 29 37  1  0
  9  7  1  6
  7 13  1  0
 10  8  1  6
  8 14  1  0
  4  5  1  0
 36 28  1  6
 33 30  1  1
 30 38  1  0
 34 31  1  6
 31 39  1  0
 35 32  1  6
 32 40  1  0
 41 43  1  0
 15 19  2  0
 42 43  2  0
 16 22  2  0
 12 17  1  1
 17 19  1  0
 17 20  1  0
 18 19  1  0
 18 22  1  0
 18 23  1  0
  9 10  1  0
  9 11  1  0
 10 12  1  0
 11  5  1  1
 33 34  1  0
 33 35  1  0
 34 36  1  0
 35 37  1  0
 37 43  1  1
 20 21  2  0
 21 22  1  0
M  CHG  3   2  -1  26  -1  41  -1
M  END
>  <COMPND>  (78) 
    udp_gluA.pdb 

>  <AUTHOR>  (78) 
    GENERATED BY OPEN BABEL 3.1.1

>  <MASTER>  (78) 
        0    0    0    0    0    0    0    0   56    0   56    0

>  <minimizedAffinity>  (78) 
-7.03102

>  <CNNscore>  (78) 
0.4416531622

>  <CNNaffinity>  (78) 
4.2355461121

>  <CNN_VS>  (78) 
1.8706423044

>  <CNNaffinity_variance>  (78) 
0.0905918181

$$$$
79
     RDKit          3D

 43 45  0  0  0  0  0  0  0  0999 V2000
   16.8191   74.0764   -6.2458 P   0  0  2  0  0  0  0  0  0  0  0  0
   15.6739   73.5852   -7.2783 O   0  0  0  0  0  0  0  0  0  0  0  0
   16.8135   75.5467   -5.9459 O   0  0  0  0  0  0  0  0  0  0  0  0
   18.1892   73.4937   -6.8793 O   0  0  0  0  0  0  0  0  0  0  0  0
   18.3139   73.4419   -8.2887 C   0  0  0  0  0  0  0  0  0  0  0  0
   18.9026   71.2242   -7.5726 O   0  0  0  0  0  0  0  0  0  0  0  0
   19.3642   70.6116  -10.4714 O   0  0  0  0  0  0  0  0  0  0  0  0
   16.9076   69.5193  -10.0155 O   0  0  0  0  0  0  0  0  0  0  0  0
   18.3774   71.4509   -9.8712 C   0  0  1  0  0  0  0  0  0  0  0  0
   17.3053   70.6100   -9.2112 C   0  0  2  0  0  0  0  0  0  0  0  0
   19.0162   72.1472   -8.6773 C   0  0  1  0  0  0  0  0  0  0  0  0
   17.9930   70.1713   -7.9296 C   0  0  2  0  0  0  0  0  0  0  0  0
   18.9794   70.1559  -11.2369 H   0  0  0  0  0  0  0  0  0  0  0  0
   16.4750   69.8507  -10.8186 H   0  0  0  0  0  0  0  0  0  0  0  0
   18.7399   69.5176   -5.2854 O   0  0  0  0  0  0  0  0  0  0  0  0
   14.3527   69.4200   -3.8760 O   0  0  0  0  0  0  0  0  0  0  0  0
   17.0664   69.9694   -6.8518 N   0  0  0  0  0  0  0  0  0  0  0  0
   16.5541   69.4686   -4.5862 N   0  0  0  0  0  0  0  0  0  0  0  0
   17.5453   69.6440   -5.5608 C   0  0  0  0  0  0  0  0  0  0  0  0
   15.7012   70.0956   -7.0782 C   0  0  0  0  0  0  0  0  0  0  0  0
   14.7684   69.9255   -6.1392 C   0  0  0  0  0  0  0  0  0  0  0  0
   15.1847   69.5828   -4.7634 C   0  0  0  0  0  0  0  0  0  0  0  0
   16.8631   69.2395   -3.6800 H   0  0  0  0  0  0  0  0  0  0  0  0
   16.5804   73.1261   -4.9602 O   0  0  0  0  0  0  0  0  0  0  0  0
   17.1737   73.2033   -3.4583 P   0  0  2  0  0  0  0  0  0  0  0  0
   16.7754   71.7662   -2.8288 O   0  0  0  0  0  0  0  0  0  0  0  0
   16.6890   74.3819   -2.6645 O   0  0  0  0  0  0  0  0  0  0  0  0
   18.7745   73.1357   -3.6466 O   0  0  0  0  0  0  0  0  0  0  0  0
   20.3036   73.3973   -1.8571 O   0  0  0  0  0  0  0  0  0  0  0  0
   22.6554   74.3476   -5.1180 O   0  0  0  0  0  0  0  0  0  0  0  0
   19.9071   75.3222   -4.9399 O   0  0  0  0  0  0  0  0  0  0  0  0
   22.9541   71.7714   -3.8047 O   0  0  0  0  0  0  0  0  0  0  0  0
   21.6094   73.6743   -4.4176 C   0  0  2  0  0  0  0  0  0  0  0  0
   20.6148   74.7002   -3.8737 C   0  0  2  0  0  0  0  0  0  0  0  0
   22.2413   72.8847   -3.2691 C   0  0  1  0  0  0  0  0  0  0  0  0
   19.6107   74.0403   -2.9275 C   0  0  1  0  0  0  0  0  0  0  0  0
   21.1822   72.3657   -2.3009 C   0  0  1  0  0  0  0  0  0  0  0  0
   22.2776   74.8563   -5.8527 H   0  0  0  0  0  0  0  0  0  0  0  0
   20.5382   75.7427   -5.5444 H   0  0  0  0  0  0  0  0  0  0  0  0
   23.6313   72.0881   -4.4227 H   0  0  0  0  0  0  0  0  0  0  0  0
   22.0233   70.5526   -1.0734 O   0  0  0  0  0  0  0  0  0  0  0  0
   22.0996   72.6046   -0.0822 O   0  0  0  0  0  0  0  0  0  0  0  0
   21.8109   71.8913   -1.0313 C   0  0  0  0  0  0  0  0  0  0  0  0
  1  4  1  0
  1 24  1  0
  1  2  1  6
  1  3  2  0
 25 28  1  0
 25 24  1  0
 25 26  1  1
 25 27  2  0
  6 11  1  0
  6 12  1  0
 29 36  1  0
 29 37  1  0
  9  7  1  1
  7 13  1  0
 10  8  1  6
  8 14  1  0
  4  5  1  0
 36 28  1  6
 33 30  1  1
 30 38  1  0
 34 31  1  6
 31 39  1  0
 35 32  1  6
 32 40  1  0
 41 43  1  0
 15 19  2  0
 42 43  2  0
 16 22  2  0
 12 17  1  1
 17 19  1  0
 17 20  1  0
 18 19  1  0
 18 22  1  0
 18 23  1  0
  9 10  1  0
  9 11  1  0
 10 12  1  0
 11  5  1  1
 33 34  1  0
 33 35  1  0
 34 36  1  0
 35 37  1  0
 37 43  1  1
 20 21  2  0
 21 22  1  0
M  CHG  3   2  -1  26  -1  41  -1
M  END
>  <COMPND>  (79) 
    udp_gluA.pdb 

>  <AUTHOR>  (79) 
    GENERATED BY OPEN BABEL 3.1.1

>  <MASTER>  (79) 
        0    0    0    0    0    0    0    0   56    0   56    0

>  <minimizedAffinity>  (79) 
-7.14460

>  <CNNscore>  (79) 
0.4100702405

>  <CNNaffinity>  (79) 
4.0895323753

>  <CNN_VS>  (79) 
1.6769955158

>  <CNNaffinity_variance>  (79) 
0.6342951655

$$$$
80
     RDKit          3D

 43 45  0  0  0  0  0  0  0  0999 V2000
   21.7608   74.6284   -5.1093 P   0  0  2  0  0  0  0  0  0  0  0  0
   22.7543   73.4117   -5.4982 O   0  0  0  0  0  0  0  0  0  0  0  0
   22.2582   75.9952   -5.4784 O   0  0  0  0  0  0  0  0  0  0  0  0
   21.4545   74.3928   -3.5381 O   0  0  0  0  0  0  0  0  0  0  0  0
   20.1352   74.0569   -3.1494 C   0  0  0  0  0  0  0  0  0  0  0  0
   19.0179   72.2498   -2.0251 O   0  0  0  0  0  0  0  0  0  0  0  0
   21.6563   71.6766   -0.7206 O   0  0  0  0  0  0  0  0  0  0  0  0
   21.5460   69.7969   -2.6931 O   0  0  0  0  0  0  0  0  0  0  0  0
   21.3838   72.1348   -2.0451 C   0  0  1  0  0  0  0  0  0  0  0  0
   20.8377   71.0029   -2.8894 C   0  0  2  0  0  0  0  0  0  0  0  0
   20.1955   73.0844   -1.9785 C   0  0  1  0  0  0  0  0  0  0  0  0
   19.3978   70.9197   -2.4122 C   0  0  2  0  0  0  0  0  0  0  0  0
   22.4121   71.0681   -0.7378 H   0  0  0  0  0  0  0  0  0  0  0  0
   22.4564   69.9009   -3.0128 H   0  0  0  0  0  0  0  0  0  0  0  0
   16.6771   70.2869   -1.9952 O   0  0  0  0  0  0  0  0  0  0  0  0
   16.0710   69.1632   -6.4240 O   0  0  0  0  0  0  0  0  0  0  0  0
   18.5061   70.4595   -3.4388 N   0  0  0  0  0  0  0  0  0  0  0  0
   16.3781   69.7269   -4.2012 N   0  0  0  0  0  0  0  0  0  0  0  0
   17.1575   70.1691   -3.1241 C   0  0  0  0  0  0  0  0  0  0  0  0
   18.9685   70.3017   -4.7396 C   0  0  0  0  0  0  0  0  0  0  0  0
   18.2136   69.8794   -5.7558 C   0  0  0  0  0  0  0  0  0  0  0  0
   16.7931   69.5536   -5.5117 C   0  0  0  0  0  0  0  0  0  0  0  0
   15.4363   69.5165   -4.0062 H   0  0  0  0  0  0  0  0  0  0  0  0
   20.3716   74.2033   -5.8180 O   0  0  0  0  0  0  0  0  0  0  0  0
   19.2408   75.0926   -6.5556 P   0  0  2  0  0  0  0  0  0  0  0  0
   20.0655   75.8376   -7.7325 O   0  0  0  0  0  0  0  0  0  0  0  0
   18.4935   76.0200   -5.6415 O   0  0  0  0  0  0  0  0  0  0  0  0
   18.3135   74.0196   -7.3246 O   0  0  0  0  0  0  0  0  0  0  0  0
   18.8306   72.6815   -9.2090 O   0  0  0  0  0  0  0  0  0  0  0  0
   14.7676   73.2626   -9.6801 O   0  0  0  0  0  0  0  0  0  0  0  0
   16.4924   75.4687   -8.8476 O   0  0  0  0  0  0  0  0  0  0  0  0
   15.7750   70.7094   -8.7227 O   0  0  0  0  0  0  0  0  0  0  0  0
   15.9848   73.0985   -8.9525 C   0  0  2  0  0  0  0  0  0  0  0  0
   16.9603   74.2140   -9.3288 C   0  0  2  0  0  0  0  0  0  0  0  0
   16.5723   71.7329   -9.3155 C   0  0  1  0  0  0  0  0  0  0  0  0
   18.3494   73.9448   -8.7486 C   0  0  1  0  0  0  0  0  0  0  0  0
   18.0046   71.5902   -8.8091 C   0  0  1  0  0  0  0  0  0  0  0  0
   14.3760   74.1240   -9.4655 H   0  0  0  0  0  0  0  0  0  0  0  0
   15.6112   75.6458   -9.2116 H   0  0  0  0  0  0  0  0  0  0  0  0
   14.8608   70.7891   -9.0367 H   0  0  0  0  0  0  0  0  0  0  0  0
   18.0665   70.0829  -10.6051 O   0  0  0  0  0  0  0  0  0  0  0  0
   19.6411   69.8251   -8.9762 O   0  0  0  0  0  0  0  0  0  0  0  0
   18.6753   70.4132   -9.4393 C   0  0  0  0  0  0  0  0  0  0  0  0
  1  4  1  0
  1 24  1  0
  1  2  1  6
  1  3  2  0
 25 28  1  0
 25 24  1  0
 25 26  1  6
 25 27  2  0
  6 11  1  0
  6 12  1  0
 29 36  1  0
 29 37  1  0
  9  7  1  1
  7 13  1  0
 10  8  1  1
  8 14  1  0
  4  5  1  0
 36 28  1  1
 33 30  1  6
 30 38  1  0
 34 31  1  1
 31 39  1  0
 35 32  1  1
 32 40  1  0
 41 43  1  0
 15 19  2  0
 42 43  2  0
 16 22  2  0
 12 17  1  6
 17 19  1  0
 17 20  1  0
 18 19  1  0
 18 22  1  0
 18 23  1  0
  9 10  1  0
  9 11  1  0
 10 12  1  0
 11  5  1  6
 33 34  1  0
 33 35  1  0
 34 36  1  0
 35 37  1  0
 37 43  1  6
 20 21  2  0
 21 22  1  0
M  CHG  3   2  -1  26  -1  41  -1
M  END
>  <COMPND>  (80) 
    udp_gluA.pdb 

>  <AUTHOR>  (80) 
    GENERATED BY OPEN BABEL 3.1.1

>  <MASTER>  (80) 
        0    0    0    0    0    0    0    0   56    0   56    0

>  <minimizedAffinity>  (80) 
-6.80035

>  <CNNscore>  (80) 
0.3925563395

>  <CNNaffinity>  (80) 
4.1015176773

>  <CNN_VS>  (80) 
1.6100767851

>  <CNNaffinity_variance>  (80) 
0.4430130422

$$$$
81
     RDKit          3D

 43 45  0  0  0  0  0  0  0  0999 V2000
   18.8591   73.9142   -7.7081 P   0  0  2  0  0  0  0  0  0  0  0  0
   17.3693   73.7056   -7.1114 O   0  0  0  0  0  0  0  0  0  0  0  0
   19.1810   75.3171   -8.1322 O   0  0  0  0  0  0  0  0  0  0  0  0
   18.9766   72.7867   -8.8626 O   0  0  0  0  0  0  0  0  0  0  0  0
   19.7591   71.6351   -8.6058 C   0  0  0  0  0  0  0  0  0  0  0  0
   18.8729   69.4732   -8.0415 O   0  0  0  0  0  0  0  0  0  0  0  0
   17.2379   69.6959  -10.5452 O   0  0  0  0  0  0  0  0  0  0  0  0
   15.4387   70.3388   -8.5995 O   0  0  0  0  0  0  0  0  0  0  0  0
   17.6144   70.7145   -9.6182 C   0  0  1  0  0  0  0  0  0  0  0  0
   16.8051   70.5893   -8.3448 C   0  0  2  0  0  0  0  0  0  0  0  0
   19.0241   70.4086   -9.1312 C   0  0  1  0  0  0  0  0  0  0  0  0
   17.4924   69.4278   -7.6472 C   0  0  2  0  0  0  0  0  0  0  0  0
   16.3403   69.8699  -10.8704 H   0  0  0  0  0  0  0  0  0  0  0  0
   15.0466   71.1073   -9.0441 H   0  0  0  0  0  0  0  0  0  0  0  0
   15.2104   68.7450   -6.1297 O   0  0  0  0  0  0  0  0  0  0  0  0
   17.2967   69.8307   -2.1657 O   0  0  0  0  0  0  0  0  0  0  0  0
   17.4119   69.5224   -6.2170 N   0  0  0  0  0  0  0  0  0  0  0  0
   16.2513   69.2873   -4.1569 N   0  0  0  0  0  0  0  0  0  0  0  0
   16.2188   69.1546   -5.5513 C   0  0  0  0  0  0  0  0  0  0  0  0
   18.5063   69.9734   -5.4891 C   0  0  0  0  0  0  0  0  0  0  0  0
   18.5224   70.0945   -4.1602 C   0  0  0  0  0  0  0  0  0  0  0  0
   17.3154   69.7317   -3.3889 C   0  0  0  0  0  0  0  0  0  0  0  0
   15.4314   69.0392   -3.6716 H   0  0  0  0  0  0  0  0  0  0  0  0
   19.8051   73.3318   -6.5338 O   0  0  0  0  0  0  0  0  0  0  0  0
   21.2355   73.8367   -5.9747 P   0  0  2  0  0  0  0  0  0  0  0  0
   20.9753   75.4016   -5.6526 O   0  0  0  0  0  0  0  0  0  0  0  0
   22.3857   73.5798   -6.9048 O   0  0  0  0  0  0  0  0  0  0  0  0
   21.3776   73.1409   -4.5262 O   0  0  0  0  0  0  0  0  0  0  0  0
   23.4521   73.9806   -3.7513 O   0  0  0  0  0  0  0  0  0  0  0  0
   22.0250   72.0383   -0.3958 O   0  0  0  0  0  0  0  0  0  0  0  0
   21.7552   70.8217   -3.0381 O   0  0  0  0  0  0  0  0  0  0  0  0
   21.9367   74.9399   -0.5504 O   0  0  0  0  0  0  0  0  0  0  0  0
   21.9289   72.7776   -1.6133 C   0  0  2  0  0  0  0  0  0  0  0  0
   22.5477   71.9687   -2.7535 C   0  0  2  0  0  0  0  0  0  0  0  0
   22.6823   74.0965   -1.4264 C   0  0  1  0  0  0  0  0  0  0  0  0
   22.6712   72.8157   -4.0209 C   0  0  1  0  0  0  0  0  0  0  0  0
   22.8743   74.8215   -2.7553 C   0  0  1  0  0  0  0  0  0  0  0  0
   21.5533   71.1958   -0.4909 H   0  0  0  0  0  0  0  0  0  0  0  0
   21.6724   70.2798   -2.2382 H   0  0  0  0  0  0  0  0  0  0  0  0
   21.8073   74.4900    0.2991 H   0  0  0  0  0  0  0  0  0  0  0  0
   23.3577   76.9610   -1.9243 O   0  0  0  0  0  0  0  0  0  0  0  0
   25.0141   75.8912   -3.0692 O   0  0  0  0  0  0  0  0  0  0  0  0
   23.8781   75.9199   -2.6201 C   0  0  0  0  0  0  0  0  0  0  0  0
  1  4  1  0
  1 24  1  0
  1  2  1  1
  1  3  2  0
 25 28  1  0
 25 24  1  0
 25 26  1  1
 25 27  2  0
  6 11  1  0
  6 12  1  0
 29 36  1  0
 29 37  1  0
  9  7  1  6
  7 13  1  0
 10  8  1  6
  8 14  1  0
  4  5  1  0
 36 28  1  1
 33 30  1  1
 30 38  1  0
 34 31  1  6
 31 39  1  0
 35 32  1  1
 32 40  1  0
 41 43  1  0
 15 19  2  0
 42 43  2  0
 16 22  2  0
 12 17  1  1
 17 19  1  0
 17 20  1  0
 18 19  1  0
 18 22  1  0
 18 23  1  0
  9 10  1  0
  9 11  1  0
 10 12  1  0
 11  5  1  1
 33 34  1  0
 33 35  1  0
 34 36  1  0
 35 37  1  0
 37 43  1  1
 20 21  2  0
 21 22  1  0
M  CHG  3   2  -1  26  -1  41  -1
M  END
>  <COMPND>  (81) 
    udp_gluA.pdb 

>  <AUTHOR>  (81) 
    GENERATED BY OPEN BABEL 3.1.1

>  <MASTER>  (81) 
        0    0    0    0    0    0    0    0   56    0   56    0

>  <minimizedAffinity>  (81) 
-8.00223

>  <CNNscore>  (81) 
0.7969483137

>  <CNNaffinity>  (81) 
4.6782045364

>  <CNN_VS>  (81) 
3.7282872200

>  <CNNaffinity_variance>  (81) 
0.3408343494

$$$$
82
     RDKit          3D

 43 45  0  0  0  0  0  0  0  0999 V2000
   19.0724   74.6339   -7.4332 P   0  0  2  0  0  0  0  0  0  0  0  0
   17.5195   74.6235   -6.9780 O   0  0  0  0  0  0  0  0  0  0  0  0
   19.4947   75.8418   -8.2171 O   0  0  0  0  0  0  0  0  0  0  0  0
   19.2691   73.2101   -8.1762 O   0  0  0  0  0  0  0  0  0  0  0  0
   19.1436   72.0253   -7.4113 C   0  0  0  0  0  0  0  0  0  0  0  0
   17.8547   69.9967   -7.3757 O   0  0  0  0  0  0  0  0  0  0  0  0
   17.1771   70.5967  -10.2344 O   0  0  0  0  0  0  0  0  0  0  0  0
   14.9345   71.4026   -8.9087 O   0  0  0  0  0  0  0  0  0  0  0  0
   17.3532   71.4960   -9.1396 C   0  0  1  0  0  0  0  0  0  0  0  0
   16.1609   71.4287   -8.2089 C   0  0  2  0  0  0  0  0  0  0  0  0
   18.4734   70.9542   -8.2621 C   0  0  1  0  0  0  0  0  0  0  0  0
   16.4274   70.1412   -7.4477 C   0  0  2  0  0  0  0  0  0  0  0  0
   16.4662   70.9220  -10.8093 H   0  0  0  0  0  0  0  0  0  0  0  0
   14.8112   72.2441   -9.3764 H   0  0  0  0  0  0  0  0  0  0  0  0
   16.3540   67.9178   -5.7077 O   0  0  0  0  0  0  0  0  0  0  0  0
   14.3551   70.3737   -2.3586 O   0  0  0  0  0  0  0  0  0  0  0  0
   15.8933   70.1717   -6.1156 N   0  0  0  0  0  0  0  0  0  0  0  0
   15.3576   69.1429   -4.0417 N   0  0  0  0  0  0  0  0  0  0  0  0
   15.9041   68.9990   -5.3238 C   0  0  0  0  0  0  0  0  0  0  0  0
   15.3684   71.3529   -5.6056 C   0  0  0  0  0  0  0  0  0  0  0  0
   14.8510   71.4746   -4.3816 C   0  0  0  0  0  0  0  0  0  0  0  0
   14.8233   70.2962   -3.4905 C   0  0  0  0  0  0  0  0  0  0  0  0
   15.3521   68.3395   -3.4726 H   0  0  0  0  0  0  0  0  0  0  0  0
   19.8611   74.4275   -6.0374 O   0  0  0  0  0  0  0  0  0  0  0  0
   21.4426   74.3318   -5.7160 P   0  0  2  0  0  0  0  0  0  0  0  0
   21.8898   75.8827   -5.5942 O   0  0  0  0  0  0  0  0  0  0  0  0
   22.2281   73.5387   -6.7200 O   0  0  0  0  0  0  0  0  0  0  0  0
   21.5201   73.7660   -4.2073 O   0  0  0  0  0  0  0  0  0  0  0  0
   19.6688   72.3923   -3.6643 O   0  0  0  0  0  0  0  0  0  0  0  0
   21.5876   72.6968   -0.0183 O   0  0  0  0  0  0  0  0  0  0  0  0
   21.3049   75.0377   -1.7430 O   0  0  0  0  0  0  0  0  0  0  0  0
   21.7935   70.2508   -1.5758 O   0  0  0  0  0  0  0  0  0  0  0  0
   21.4958   72.6379   -1.4417 C   0  0  2  0  0  0  0  0  0  0  0  0
   20.6376   73.7977   -1.9476 C   0  0  2  0  0  0  0  0  0  0  0  0
   20.8577   71.2993   -1.8195 C   0  0  1  0  0  0  0  0  0  0  0  0
   20.3265   73.6393   -3.4365 C   0  0  1  0  0  0  0  0  0  0  0  0
   20.4618   71.2670   -3.2929 C   0  0  1  0  0  0  0  0  0  0  0  0
   21.9903   73.5392    0.2454 H   0  0  0  0  0  0  0  0  0  0  0  0
   21.5056   75.1447   -0.8003 H   0  0  0  0  0  0  0  0  0  0  0  0
   22.0538   70.2604   -0.6414 H   0  0  0  0  0  0  0  0  0  0  0  0
   19.0269   69.6280   -2.4233 O   0  0  0  0  0  0  0  0  0  0  0  0
   19.3203   69.6600   -4.6842 O   0  0  0  0  0  0  0  0  0  0  0  0
   19.5572   70.1116   -3.5739 C   0  0  0  0  0  0  0  0  0  0  0  0
  1  4  1  0
  1 24  1  0
  1  2  1  1
  1  3  2  0
 25 28  1  0
 25 24  1  0
 25 26  1  1
 25 27  2  0
  6 11  1  0
  6 12  1  0
 29 36  1  0
 29 37  1  0
  9  7  1  6
  7 13  1  0
 10  8  1  6
  8 14  1  0
  4  5  1  0
 36 28  1  6
 33 30  1  1
 30 38  1  0
 34 31  1  6
 31 39  1  0
 35 32  1  6
 32 40  1  0
 41 43  1  0
 15 19  2  0
 42 43  2  0
 16 22  2  0
 12 17  1  1
 17 19  1  0
 17 20  1  0
 18 19  1  0
 18 22  1  0
 18 23  1  0
  9 10  1  0
  9 11  1  0
 10 12  1  0
 11  5  1  1
 33 34  1  0
 33 35  1  0
 34 36  1  0
 35 37  1  0
 37 43  1  1
 20 21  2  0
 21 22  1  0
M  CHG  3   2  -1  26  -1  41  -1
M  END
>  <COMPND>  (82) 
    udp_gluA.pdb 

>  <AUTHOR>  (82) 
    GENERATED BY OPEN BABEL 3.1.1

>  <MASTER>  (82) 
        0    0    0    0    0    0    0    0   56    0   56    0

>  <minimizedAffinity>  (82) 
-7.70700

>  <CNNscore>  (82) 
0.7720035911

>  <CNNaffinity>  (82) 
4.4507637024

>  <CNN_VS>  (82) 
3.4360055923

>  <CNNaffinity_variance>  (82) 
0.4507752061

$$$$
83
     RDKit          3D

 43 45  0  0  0  0  0  0  0  0999 V2000
   19.5779   70.8635   -3.0971 P   0  0  2  0  0  0  0  0  0  0  0  0
   19.8411   71.6618   -4.4800 O   0  0  0  0  0  0  0  0  0  0  0  0
   20.0738   69.4474   -3.0787 O   0  0  0  0  0  0  0  0  0  0  0  0
   17.9933   71.0565   -2.8328 O   0  0  0  0  0  0  0  0  0  0  0  0
   17.2572   71.8862   -3.7127 C   0  0  0  0  0  0  0  0  0  0  0  0
   15.5402   71.3738   -5.3149 O   0  0  0  0  0  0  0  0  0  0  0  0
   14.4295   69.5055   -3.2491 O   0  0  0  0  0  0  0  0  0  0  0  0
   15.7479   67.8148   -4.9342 O   0  0  0  0  0  0  0  0  0  0  0  0
   15.7907   69.8136   -3.5502 C   0  0  1  0  0  0  0  0  0  0  0  0
   16.2044   69.1484   -4.8458 C   0  0  2  0  0  0  0  0  0  0  0  0
   15.8693   71.2907   -3.9113 C   0  0  1  0  0  0  0  0  0  0  0  0
   15.5656   70.0551   -5.8839 C   0  0  2  0  0  0  0  0  0  0  0  0
   14.3542   68.5667   -3.0154 H   0  0  0  0  0  0  0  0  0  0  0  0
   16.1839   67.2781   -4.2531 H   0  0  0  0  0  0  0  0  0  0  0  0
   14.4288   70.5498   -8.4216 O   0  0  0  0  0  0  0  0  0  0  0  0
   18.5111   70.1679  -10.5270 O   0  0  0  0  0  0  0  0  0  0  0  0
   16.3083   70.0907   -7.1119 N   0  0  0  0  0  0  0  0  0  0  0  0
   16.4630   70.3581   -9.4679 N   0  0  0  0  0  0  0  0  0  0  0  0
   15.6413   70.3475   -8.3331 C   0  0  0  0  0  0  0  0  0  0  0  0
   17.6809   69.8746   -7.0987 C   0  0  0  0  0  0  0  0  0  0  0  0
   18.4508   69.8879   -8.1886 C   0  0  0  0  0  0  0  0  0  0  0  0
   17.8320   70.1481   -9.5050 C   0  0  0  0  0  0  0  0  0  0  0  0
   16.0209   70.5328  -10.3301 H   0  0  0  0  0  0  0  0  0  0  0  0
   20.2514   71.8274   -1.9879 O   0  0  0  0  0  0  0  0  0  0  0  0
   21.7690   71.9134   -1.4374 P   0  0  2  0  0  0  0  0  0  0  0  0
   22.3210   70.4049   -1.6372 O   0  0  0  0  0  0  0  0  0  0  0  0
   21.8864   72.4341   -0.0342 O   0  0  0  0  0  0  0  0  0  0  0  0
   22.5567   72.7850   -2.5431 O   0  0  0  0  0  0  0  0  0  0  0  0
   21.8717   74.9926   -2.0272 O   0  0  0  0  0  0  0  0  0  0  0  0
   24.8333   75.6643   -4.8282 O   0  0  0  0  0  0  0  0  0  0  0  0
   22.8983   73.5086   -5.2068 O   0  0  0  0  0  0  0  0  0  0  0  0
   25.3585   76.1345   -2.0079 O   0  0  0  0  0  0  0  0  0  0  0  0
   24.1804   74.9759   -3.7614 C   0  0  2  0  0  0  0  0  0  0  0  0
   22.7923   74.5252   -4.2169 C   0  0  2  0  0  0  0  0  0  0  0  0
   24.0656   75.9388   -2.5776 C   0  0  1  0  0  0  0  0  0  0  0  0
   21.9769   73.9902   -3.0389 C   0  0  1  0  0  0  0  0  0  0  0  0
   23.1360   75.3883   -1.4999 C   0  0  1  0  0  0  0  0  0  0  0  0
   24.9174   75.0718   -5.5919 H   0  0  0  0  0  0  0  0  0  0  0  0
   23.4148   73.8411   -5.9572 H   0  0  0  0  0  0  0  0  0  0  0  0
   25.9599   76.4846   -2.6836 H   0  0  0  0  0  0  0  0  0  0  0  0
   22.0360   75.9386    0.4973 O   0  0  0  0  0  0  0  0  0  0  0  0
   23.0901   77.6304   -0.6099 O   0  0  0  0  0  0  0  0  0  0  0  0
   22.7715   76.4543   -0.5186 C   0  0  0  0  0  0  0  0  0  0  0  0
  1  4  1  0
  1 24  1  0
  1  2  1  6
  1  3  2  0
 25 28  1  0
 25 24  1  0
 25 26  1  1
 25 27  2  0
  6 11  1  0
  6 12  1  0
 29 36  1  0
 29 37  1  0
  9  7  1  6
  7 13  1  0
 10  8  1  1
  8 14  1  0
  4  5  1  0
 36 28  1  1
 33 30  1  6
 30 38  1  0
 34 31  1  6
 31 39  1  0
 35 32  1  1
 32 40  1  0
 41 43  1  0
 15 19  2  0
 42 43  2  0
 16 22  2  0
 12 17  1  6
 17 19  1  0
 17 20  1  0
 18 19  1  0
 18 22  1  0
 18 23  1  0
  9 10  1  0
  9 11  1  0
 10 12  1  0
 11  5  1  6
 33 34  1  0
 33 35  1  0
 34 36  1  0
 35 37  1  0
 37 43  1  1
 20 21  2  0
 21 22  1  0
M  CHG  3   2  -1  26  -1  41  -1
M  END
>  <COMPND>  (83) 
    udp_gluA.pdb 

>  <AUTHOR>  (83) 
    GENERATED BY OPEN BABEL 3.1.1

>  <MASTER>  (83) 
        0    0    0    0    0    0    0    0   56    0   56    0

>  <minimizedAffinity>  (83) 
-7.74037

>  <CNNscore>  (83) 
0.7513499856

>  <CNNaffinity>  (83) 
4.6632394791

>  <CNN_VS>  (83) 
3.5037248135

>  <CNNaffinity_variance>  (83) 
0.0921645910

$$$$
84
     RDKit          3D

 43 45  0  0  0  0  0  0  0  0999 V2000
   19.2036   73.7232   -7.5637 P   0  0  2  0  0  0  0  0  0  0  0  0
   17.9907   73.3453   -6.5612 O   0  0  0  0  0  0  0  0  0  0  0  0
   19.2373   75.1569   -8.0052 O   0  0  0  0  0  0  0  0  0  0  0  0
   19.0856   72.6262   -8.7471 O   0  0  0  0  0  0  0  0  0  0  0  0
   19.8603   71.4448   -8.6537 C   0  0  0  0  0  0  0  0  0  0  0  0
   18.8254   69.3473   -8.0998 O   0  0  0  0  0  0  0  0  0  0  0  0
   17.2194   69.6894  -10.6088 O   0  0  0  0  0  0  0  0  0  0  0  0
   15.4611   70.4486   -8.6677 O   0  0  0  0  0  0  0  0  0  0  0  0
   17.6613   70.6769   -9.6771 C   0  0  1  0  0  0  0  0  0  0  0  0
   16.8404   70.6038   -8.4071 C   0  0  2  0  0  0  0  0  0  0  0  0
   19.0448   70.2734   -9.1858 C   0  0  1  0  0  0  0  0  0  0  0  0
   17.4435   69.3958   -7.7108 C   0  0  2  0  0  0  0  0  0  0  0  0
   16.3372   69.9256  -10.9367 H   0  0  0  0  0  0  0  0  0  0  0  0
   15.1244   71.2435   -9.1112 H   0  0  0  0  0  0  0  0  0  0  0  0
   15.1036   68.9056   -6.2071 O   0  0  0  0  0  0  0  0  0  0  0  0
   17.2550   69.7926   -2.2286 O   0  0  0  0  0  0  0  0  0  0  0  0
   17.3641   69.4913   -6.2806 N   0  0  0  0  0  0  0  0  0  0  0  0
   16.1771   69.3488   -4.2271 N   0  0  0  0  0  0  0  0  0  0  0  0
   16.1404   69.2248   -5.6222 C   0  0  0  0  0  0  0  0  0  0  0  0
   18.4894   69.8438   -5.5455 C   0  0  0  0  0  0  0  0  0  0  0  0
   18.5090   69.9579   -4.2161 C   0  0  0  0  0  0  0  0  0  0  0  0
   17.2714   69.6971   -3.4520 C   0  0  0  0  0  0  0  0  0  0  0  0
   15.3364   69.1701   -3.7468 H   0  0  0  0  0  0  0  0  0  0  0  0
   20.5126   73.2387   -6.7484 O   0  0  0  0  0  0  0  0  0  0  0  0
   21.4603   74.0232   -5.6995 P   0  0  2  0  0  0  0  0  0  0  0  0
   21.6330   75.4830   -6.3773 O   0  0  0  0  0  0  0  0  0  0  0  0
   22.7544   73.3247   -5.3972 O   0  0  0  0  0  0  0  0  0  0  0  0
   20.5218   74.2801   -4.4128 O   0  0  0  0  0  0  0  0  0  0  0  0
   20.6810   72.3718   -3.0192 O   0  0  0  0  0  0  0  0  0  0  0  0
   18.0833   74.7641   -0.8752 O   0  0  0  0  0  0  0  0  0  0  0  0
   17.8256   74.5262   -3.7754 O   0  0  0  0  0  0  0  0  0  0  0  0
   20.8519   74.4938   -0.0308 O   0  0  0  0  0  0  0  0  0  0  0  0
   19.1708   74.4846   -1.7568 C   0  0  2  0  0  0  0  0  0  0  0  0
   18.6600   73.7038   -2.9679 C   0  0  2  0  0  0  0  0  0  0  0  0
   20.2030   73.6577   -0.9871 C   0  0  1  0  0  0  0  0  0  0  0  0
   19.8231   73.1886   -3.8169 C   0  0  1  0  0  0  0  0  0  0  0  0
   21.2592   73.0751   -1.9218 C   0  0  1  0  0  0  0  0  0  0  0  0
   17.4145   75.2890   -1.3427 H   0  0  0  0  0  0  0  0  0  0  0  0
   17.0856   74.8569   -3.2430 H   0  0  0  0  0  0  0  0  0  0  0  0
   20.1906   74.8712    0.5702 H   0  0  0  0  0  0  0  0  0  0  0  0
   23.0538   72.5738   -0.4972 O   0  0  0  0  0  0  0  0  0  0  0  0
   21.8436   70.8174   -1.3031 O   0  0  0  0  0  0  0  0  0  0  0  0
   22.0561   72.0183   -1.2286 C   0  0  0  0  0  0  0  0  0  0  0  0
  1  4  1  0
  1 24  1  0
  1  2  1  1
  1  3  2  0
 25 28  1  0
 25 24  1  0
 25 26  1  6
 25 27  2  0
  6 11  1  0
  6 12  1  0
 29 36  1  0
 29 37  1  0
  9  7  1  6
  7 13  1  0
 10  8  1  6
  8 14  1  0
  4  5  1  0
 36 28  1  1
 33 30  1  1
 30 38  1  0
 34 31  1  6
 31 39  1  0
 35 32  1  1
 32 40  1  0
 41 43  1  0
 15 19  2  0
 42 43  2  0
 16 22  2  0
 12 17  1  1
 17 19  1  0
 17 20  1  0
 18 19  1  0
 18 22  1  0
 18 23  1  0
  9 10  1  0
  9 11  1  0
 10 12  1  0
 11  5  1  1
 33 34  1  0
 33 35  1  0
 34 36  1  0
 35 37  1  0
 37 43  1  1
 20 21  2  0
 21 22  1  0
M  CHG  3   2  -1  26  -1  41  -1
M  END
>  <COMPND>  (84) 
    udp_gluA.pdb 

>  <AUTHOR>  (84) 
    GENERATED BY OPEN BABEL 3.1.1

>  <MASTER>  (84) 
        0    0    0    0    0    0    0    0   56    0   56    0

>  <minimizedAffinity>  (84) 
-8.16189

>  <CNNscore>  (84) 
0.5931178331

>  <CNNaffinity>  (84) 
4.3718652725

>  <CNN_VS>  (84) 
2.5930311680

>  <CNNaffinity_variance>  (84) 
0.6040750742

$$$$
85
     RDKit          3D

 43 45  0  0  0  0  0  0  0  0999 V2000
   18.3950   73.9996   -8.1959 P   0  0  2  0  0  0  0  0  0  0  0  0
   16.9357   74.4054   -8.7657 O   0  0  0  0  0  0  0  0  0  0  0  0
   19.3398   75.1485   -7.9977 O   0  0  0  0  0  0  0  0  0  0  0  0
   18.8990   72.8420   -9.2078 O   0  0  0  0  0  0  0  0  0  0  0  0
   19.5575   71.7112   -8.6674 C   0  0  0  0  0  0  0  0  0  0  0  0
   18.7904   69.5105   -8.0789 O   0  0  0  0  0  0  0  0  0  0  0  0
   17.0915   69.6455  -10.5461 O   0  0  0  0  0  0  0  0  0  0  0  0
   15.3066   70.2062   -8.5622 O   0  0  0  0  0  0  0  0  0  0  0  0
   17.4383   70.6841   -9.6298 C   0  0  1  0  0  0  0  0  0  0  0  0
   16.6645   70.5237   -8.3384 C   0  0  2  0  0  0  0  0  0  0  0  0
   18.8717   70.4488   -9.1736 C   0  0  1  0  0  0  0  0  0  0  0  0
   17.4228   69.3993   -7.6539 C   0  0  2  0  0  0  0  0  0  0  0  0
   16.1795   69.7745  -10.8515 H   0  0  0  0  0  0  0  0  0  0  0  0
   14.8677   70.9533   -8.9995 H   0  0  0  0  0  0  0  0  0  0  0  0
   15.0932   68.9796   -6.1134 O   0  0  0  0  0  0  0  0  0  0  0  0
   17.3352   69.7907   -2.1688 O   0  0  0  0  0  0  0  0  0  0  0  0
   17.3695   69.4944   -6.2225 N   0  0  0  0  0  0  0  0  0  0  0  0
   16.2118   69.3850   -4.1503 N   0  0  0  0  0  0  0  0  0  0  0  0
   16.1488   69.2650   -5.5448 C   0  0  0  0  0  0  0  0  0  0  0  0
   18.5170   69.8100   -5.5051 C   0  0  0  0  0  0  0  0  0  0  0  0
   18.5616   69.9207   -4.1760 C   0  0  0  0  0  0  0  0  0  0  0  0
   17.3289   69.6973   -3.3925 C   0  0  0  0  0  0  0  0  0  0  0  0
   15.3738   69.2317   -3.6567 H   0  0  0  0  0  0  0  0  0  0  0  0
   18.0431   73.1772   -6.8495 O   0  0  0  0  0  0  0  0  0  0  0  0
   17.7315   73.6849   -5.3466 P   0  0  2  0  0  0  0  0  0  0  0  0
   16.5406   72.7008   -4.8632 O   0  0  0  0  0  0  0  0  0  0  0  0
   17.4049   75.1468   -5.2457 O   0  0  0  0  0  0  0  0  0  0  0  0
   19.0151   73.2246   -4.4847 O   0  0  0  0  0  0  0  0  0  0  0  0
   20.0376   73.4710   -2.3627 O   0  0  0  0  0  0  0  0  0  0  0  0
   23.0803   74.6372   -4.9025 O   0  0  0  0  0  0  0  0  0  0  0  0
   20.3323   75.5014   -5.3888 O   0  0  0  0  0  0  0  0  0  0  0  0
   23.1609   72.0235   -3.6325 O   0  0  0  0  0  0  0  0  0  0  0  0
   21.9250   73.8982   -4.5060 C   0  0  2  0  0  0  0  0  0  0  0  0
   20.7804   74.8640   -4.1982 C   0  0  2  0  0  0  0  0  0  0  0  0
   22.2870   73.0874   -3.2597 C   0  0  1  0  0  0  0  0  0  0  0  0
   19.6040   74.1302   -3.5530 C   0  0  1  0  0  0  0  0  0  0  0  0
   21.0453   72.4912   -2.6029 C   0  0  1  0  0  0  0  0  0  0  0  0
   22.8740   75.1605   -5.6930 H   0  0  0  0  0  0  0  0  0  0  0  0
   21.0739   75.9688   -5.8036 H   0  0  0  0  0  0  0  0  0  0  0  0
   23.9552   72.3894   -4.0520 H   0  0  0  0  0  0  0  0  0  0  0  0
   21.6643   70.6691   -1.2619 O   0  0  0  0  0  0  0  0  0  0  0  0
   21.3489   72.6705   -0.2160 O   0  0  0  0  0  0  0  0  0  0  0  0
   21.3598   71.9901   -1.2309 C   0  0  0  0  0  0  0  0  0  0  0  0
  1  4  1  0
  1 24  1  0
  1  2  1  6
  1  3  2  0
 25 28  1  0
 25 24  1  0
 25 26  1  1
 25 27  2  0
  6 11  1  0
  6 12  1  0
 29 36  1  0
 29 37  1  0
  9  7  1  6
  7 13  1  0
 10  8  1  6
  8 14  1  0
  4  5  1  0
 36 28  1  6
 33 30  1  1
 30 38  1  0
 34 31  1  6
 31 39  1  0
 35 32  1  6
 32 40  1  0
 41 43  1  0
 15 19  2  0
 42 43  2  0
 16 22  2  0
 12 17  1  1
 17 19  1  0
 17 20  1  0
 18 19  1  0
 18 22  1  0
 18 23  1  0
  9 10  1  0
  9 11  1  0
 10 12  1  0
 11  5  1  1
 33 34  1  0
 33 35  1  0
 34 36  1  0
 35 37  1  0
 37 43  1  1
 20 21  2  0
 21 22  1  0
M  CHG  3   2  -1  26  -1  41  -1
M  END
>  <COMPND>  (85) 
    udp_gluA.pdb 

>  <AUTHOR>  (85) 
    GENERATED BY OPEN BABEL 3.1.1

>  <MASTER>  (85) 
        0    0    0    0    0    0    0    0   56    0   56    0

>  <minimizedAffinity>  (85) 
-8.04571

>  <CNNscore>  (85) 
0.5764417648

>  <CNNaffinity>  (85) 
4.3324222565

>  <CNN_VS>  (85) 
2.4973890781

>  <CNNaffinity_variance>  (85) 
0.7161785960

$$$$
86
     RDKit          3D

 43 45  0  0  0  0  0  0  0  0999 V2000
   18.1317   70.1159   -4.0087 P   0  0  2  0  0  0  0  0  0  0  0  0
   19.6696   69.6452   -4.1877 O   0  0  0  0  0  0  0  0  0  0  0  0
   17.4572   69.6173   -2.7645 O   0  0  0  0  0  0  0  0  0  0  0  0
   17.4313   69.6939   -5.4049 O   0  0  0  0  0  0  0  0  0  0  0  0
   18.1339   69.9277   -6.6116 C   0  0  0  0  0  0  0  0  0  0  0  0
   15.8553   69.8900   -7.3760 O   0  0  0  0  0  0  0  0  0  0  0  0
   16.9835   69.8415  -10.1538 O   0  0  0  0  0  0  0  0  0  0  0  0
   16.2658   72.4544   -9.8477 O   0  0  0  0  0  0  0  0  0  0  0  0
   17.4664   70.5200   -8.9941 C   0  0  1  0  0  0  0  0  0  0  0  0
   16.5948   71.7194   -8.6875 C   0  0  2  0  0  0  0  0  0  0  0  0
   17.2140   69.6260   -7.7877 C   0  0  1  0  0  0  0  0  0  0  0  0
   15.3817   71.0710   -8.0425 C   0  0  2  0  0  0  0  0  0  0  0  0
   17.1338   70.3934  -10.9377 H   0  0  0  0  0  0  0  0  0  0  0  0
   17.0711   72.8474  -10.2206 H   0  0  0  0  0  0  0  0  0  0  0  0
   13.4100   72.9928   -8.6717 O   0  0  0  0  0  0  0  0  0  0  0  0
   13.0234   74.3044   -4.2701 O   0  0  0  0  0  0  0  0  0  0  0  0
   14.7490   71.9282   -7.0803 N   0  0  0  0  0  0  0  0  0  0  0  0
   13.2201   73.6449   -6.4790 N   0  0  0  0  0  0  0  0  0  0  0  0
   13.7705   72.8598   -7.5006 C   0  0  0  0  0  0  0  0  0  0  0  0
   15.0974   71.8402   -5.7380 C   0  0  0  0  0  0  0  0  0  0  0  0
   14.5639   72.5952   -4.7757 C   0  0  0  0  0  0  0  0  0  0  0  0
   13.5347   73.5943   -5.1306 C   0  0  0  0  0  0  0  0  0  0  0  0
   12.5381   74.3022   -6.7475 H   0  0  0  0  0  0  0  0  0  0  0  0
   18.2292   71.7254   -4.1230 O   0  0  0  0  0  0  0  0  0  0  0  0
   19.4967   72.6967   -4.3756 P   0  0  2  0  0  0  0  0  0  0  0  0
   18.8603   74.1786   -4.2370 O   0  0  0  0  0  0  0  0  0  0  0  0
   20.2129   72.4500   -5.6718 O   0  0  0  0  0  0  0  0  0  0  0  0
   20.4141   72.5228   -3.0601 O   0  0  0  0  0  0  0  0  0  0  0  0
   22.5389   73.2485   -3.8137 O   0  0  0  0  0  0  0  0  0  0  0  0
   23.1902   72.8096    0.2423 O   0  0  0  0  0  0  0  0  0  0  0  0
   21.6385   70.8214   -1.2320 O   0  0  0  0  0  0  0  0  0  0  0  0
   22.8808   75.4617   -0.9073 O   0  0  0  0  0  0  0  0  0  0  0  0
   22.4305   73.0949   -0.9322 C   0  0  2  0  0  0  0  0  0  0  0  0
   22.4005   71.8611   -1.8345 C   0  0  2  0  0  0  0  0  0  0  0  0
   23.0990   74.2666   -1.6547 C   0  0  1  0  0  0  0  0  0  0  0  0
   21.7956   72.1955   -3.1987 C   0  0  1  0  0  0  0  0  0  0  0  0
   22.5264   74.4566   -3.0564 C   0  0  1  0  0  0  0  0  0  0  0  0
   22.7841   72.0679    0.7181 H   0  0  0  0  0  0  0  0  0  0  0  0
   22.0166   70.6043   -0.3658 H   0  0  0  0  0  0  0  0  0  0  0  0
   23.2405   75.3540   -0.0130 H   0  0  0  0  0  0  0  0  0  0  0  0
   24.3950   74.6740   -4.4573 O   0  0  0  0  0  0  0  0  0  0  0  0
   23.2253   76.5725   -3.9814 O   0  0  0  0  0  0  0  0  0  0  0  0
   23.3921   75.3678   -3.8641 C   0  0  0  0  0  0  0  0  0  0  0  0
  1  4  1  0
  1 24  1  0
  1  2  1  6
  1  3  2  0
 25 28  1  0
 25 24  1  0
 25 26  1  6
 25 27  2  0
  6 11  1  0
  6 12  1  0
 29 36  1  0
 29 37  1  0
  9  7  1  6
  7 13  1  0
 10  8  1  6
  8 14  1  0
  4  5  1  0
 36 28  1  1
 33 30  1  1
 30 38  1  0
 34 31  1  1
 31 39  1  0
 35 32  1  1
 32 40  1  0
 41 43  1  0
 15 19  2  0
 42 43  2  0
 16 22  2  0
 12 17  1  1
 17 19  1  0
 17 20  1  0
 18 19  1  0
 18 22  1  0
 18 23  1  0
  9 10  1  0
  9 11  1  0
 10 12  1  0
 11  5  1  1
 33 34  1  0
 33 35  1  0
 34 36  1  0
 35 37  1  0
 37 43  1  6
 20 21  2  0
 21 22  1  0
M  CHG  3   2  -1  26  -1  41  -1
M  END
>  <COMPND>  (86) 
    udp_gluA.pdb 

>  <AUTHOR>  (86) 
    GENERATED BY OPEN BABEL 3.1.1

>  <MASTER>  (86) 
        0    0    0    0    0    0    0    0   56    0   56    0

>  <minimizedAffinity>  (86) 
-7.40766

>  <CNNscore>  (86) 
0.5578085780

>  <CNNaffinity>  (86) 
4.3326120377

>  <CNN_VS>  (86) 
2.4167680740

>  <CNNaffinity_variance>  (86) 
0.1545095444

$$$$
87
     RDKit          3D

 43 45  0  0  0  0  0  0  0  0999 V2000
   21.0985   71.3925   -2.2826 P   0  0  2  0  0  0  0  0  0  0  0  0
   21.8970   72.2191   -3.4218 O   0  0  0  0  0  0  0  0  0  0  0  0
   21.4567   69.9384   -2.1866 O   0  0  0  0  0  0  0  0  0  0  0  0
   19.5424   71.7141   -2.5879 O   0  0  0  0  0  0  0  0  0  0  0  0
   19.0288   71.4112   -3.8720 C   0  0  0  0  0  0  0  0  0  0  0  0
   16.9616   71.5992   -5.0841 O   0  0  0  0  0  0  0  0  0  0  0  0
   15.7340   69.9886   -2.8727 O   0  0  0  0  0  0  0  0  0  0  0  0
   16.0870   68.1310   -4.8375 O   0  0  0  0  0  0  0  0  0  0  0  0
   17.0362   69.8869   -3.4491 C   0  0  1  0  0  0  0  0  0  0  0  0
   16.9549   69.2449   -4.8178 C   0  0  2  0  0  0  0  0  0  0  0  0
   17.5126   71.2936   -3.7848 C   0  0  1  0  0  0  0  0  0  0  0  0
   16.4518   70.3935   -5.6755 C   0  0  2  0  0  0  0  0  0  0  0  0
   15.4085   69.1020   -2.6498 H   0  0  0  0  0  0  0  0  0  0  0  0
   16.4513   67.4273   -4.2771 H   0  0  0  0  0  0  0  0  0  0  0  0
   14.7582   70.3097   -7.9341 O   0  0  0  0  0  0  0  0  0  0  0  0
   18.3331   70.0632  -10.8330 O   0  0  0  0  0  0  0  0  0  0  0  0
   16.9134   70.3074   -7.0321 N   0  0  0  0  0  0  0  0  0  0  0  0
   16.5403   70.1860   -9.3757 N   0  0  0  0  0  0  0  0  0  0  0  0
   15.9796   70.2712   -8.0945 C   0  0  0  0  0  0  0  0  0  0  0  0
   18.2763   70.2616   -7.2994 C   0  0  0  0  0  0  0  0  0  0  0  0
   18.7957   70.1806   -8.5260 C   0  0  0  0  0  0  0  0  0  0  0  0
   17.8885   70.1372   -9.6914 C   0  0  0  0  0  0  0  0  0  0  0  0
   15.9099   70.1573  -10.1313 H   0  0  0  0  0  0  0  0  0  0  0  0
   21.3900   72.2477   -0.9422 O   0  0  0  0  0  0  0  0  0  0  0  0
   21.4317   73.8439   -0.6897 P   0  0  2  0  0  0  0  0  0  0  0  0
   19.8664   74.2561   -0.6686 O   0  0  0  0  0  0  0  0  0  0  0  0
   22.2579   74.6038   -1.6867 O   0  0  0  0  0  0  0  0  0  0  0  0
   21.9154   74.0037    0.8410 O   0  0  0  0  0  0  0  0  0  0  0  0
   21.6771   75.6413    2.5353 O   0  0  0  0  0  0  0  0  0  0  0  0
   25.6370   74.5482    2.9737 O   0  0  0  0  0  0  0  0  0  0  0  0
   24.4887   74.9179    0.3131 O   0  0  0  0  0  0  0  0  0  0  0  0
   23.6439   73.6022    4.8668 O   0  0  0  0  0  0  0  0  0  0  0  0
   24.2579   74.3522    2.6610 C   0  0  2  0  0  0  0  0  0  0  0  0
   23.8512   75.2947    1.5280 C   0  0  2  0  0  0  0  0  0  0  0  0
   23.4406   74.6496    3.9201 C   0  0  1  0  0  0  0  0  0  0  0  0
   22.3360   75.2794    1.3210 C   0  0  1  0  0  0  0  0  0  0  0  0
   21.9499   74.7421    3.6077 C   0  0  1  0  0  0  0  0  0  0  0  0
   26.1761   74.3649    2.1882 H   0  0  0  0  0  0  0  0  0  0  0  0
   25.4504   74.9252    0.4373 H   0  0  0  0  0  0  0  0  0  0  0  0
   24.5889   73.5327    5.0741 H   0  0  0  0  0  0  0  0  0  0  0  0
   20.0080   75.8353    4.3395 O   0  0  0  0  0  0  0  0  0  0  0  0
   21.6092   75.4009    5.9036 O   0  0  0  0  0  0  0  0  0  0  0  0
   21.2047   75.3486    4.7518 C   0  0  0  0  0  0  0  0  0  0  0  0
  1  4  1  0
  1 24  1  0
  1  2  1  6
  1  3  2  0
 25 28  1  0
 25 24  1  0
 25 26  1  1
 25 27  2  0
  6 11  1  0
  6 12  1  0
 29 36  1  0
 29 37  1  0
  9  7  1  6
  7 13  1  0
 10  8  1  1
  8 14  1  0
  4  5  1  0
 36 28  1  1
 33 30  1  1
 30 38  1  0
 34 31  1  6
 31 39  1  0
 35 32  1  1
 32 40  1  0
 41 43  1  0
 15 19  2  0
 42 43  2  0
 16 22  2  0
 12 17  1  6
 17 19  1  0
 17 20  1  0
 18 19  1  0
 18 22  1  0
 18 23  1  0
  9 10  1  0
  9 11  1  0
 10 12  1  0
 11  5  1  6
 33 34  1  0
 33 35  1  0
 34 36  1  0
 35 37  1  0
 37 43  1  1
 20 21  2  0
 21 22  1  0
M  CHG  3   2  -1  26  -1  41  -1
M  END
>  <COMPND>  (87) 
    udp_gluA.pdb 

>  <AUTHOR>  (87) 
    GENERATED BY OPEN BABEL 3.1.1

>  <MASTER>  (87) 
        0    0    0    0    0    0    0    0   56    0   56    0

>  <minimizedAffinity>  (87) 
-7.87057

>  <CNNscore>  (87) 
0.5462447405

>  <CNNaffinity>  (87) 
4.2848415375

>  <CNN_VS>  (87) 
2.3405721188

>  <CNNaffinity_variance>  (87) 
0.0624425896

$$$$
88
     RDKit          3D

 43 45  0  0  0  0  0  0  0  0999 V2000
   17.3970   74.7508   -5.4921 P   0  0  2  0  0  0  0  0  0  0  0  0
   15.9524   75.4800   -5.5133 O   0  0  0  0  0  0  0  0  0  0  0  0
   18.4650   75.4825   -4.7334 O   0  0  0  0  0  0  0  0  0  0  0  0
   17.7126   74.4685   -7.0537 O   0  0  0  0  0  0  0  0  0  0  0  0
   17.0483   73.3950   -7.6945 C   0  0  0  0  0  0  0  0  0  0  0  0
   17.9560   71.2497   -7.1013 O   0  0  0  0  0  0  0  0  0  0  0  0
   19.0614   71.1548   -9.8871 O   0  0  0  0  0  0  0  0  0  0  0  0
   16.8541   69.5638  -10.0674 O   0  0  0  0  0  0  0  0  0  0  0  0
   17.8250   71.6980   -9.4235 C   0  0  1  0  0  0  0  0  0  0  0  0
   16.8551   70.5841   -9.0909 C   0  0  2  0  0  0  0  0  0  0  0  0
   18.0701   72.3254   -8.0580 C   0  0  1  0  0  0  0  0  0  0  0  0
   17.3738   70.1055   -7.7456 C   0  0  2  0  0  0  0  0  0  0  0  0
   18.9299   70.7483  -10.7584 H   0  0  0  0  0  0  0  0  0  0  0  0
   16.5154   69.9182  -10.9050 H   0  0  0  0  0  0  0  0  0  0  0  0
   14.6538   70.8405   -7.9411 O   0  0  0  0  0  0  0  0  0  0  0  0
   13.4569   68.0271   -4.4921 O   0  0  0  0  0  0  0  0  0  0  0  0
   16.3302   69.5805   -6.9112 N   0  0  0  0  0  0  0  0  0  0  0  0
   14.0604   69.4393   -6.2224 N   0  0  0  0  0  0  0  0  0  0  0  0
   14.9961   70.0161   -7.0914 C   0  0  0  0  0  0  0  0  0  0  0  0
   16.6320   68.6445   -5.9295 C   0  0  0  0  0  0  0  0  0  0  0  0
   15.7293   68.1037   -5.1089 C   0  0  0  0  0  0  0  0  0  0  0  0
   14.3125   68.5055   -5.2305 C   0  0  0  0  0  0  0  0  0  0  0  0
   13.1252   69.7285   -6.3274 H   0  0  0  0  0  0  0  0  0  0  0  0
   17.0523   73.2791   -4.9193 O   0  0  0  0  0  0  0  0  0  0  0  0
   16.9817   72.7195   -3.4042 P   0  0  2  0  0  0  0  0  0  0  0  0
   16.4110   71.2163   -3.5913 O   0  0  0  0  0  0  0  0  0  0  0  0
   16.1768   73.5746   -2.4688 O   0  0  0  0  0  0  0  0  0  0  0  0
   18.5223   72.5190   -2.9698 O   0  0  0  0  0  0  0  0  0  0  0  0
   20.3814   72.6888   -4.4272 O   0  0  0  0  0  0  0  0  0  0  0  0
   21.8626   70.2268   -1.4586 O   0  0  0  0  0  0  0  0  0  0  0  0
   19.1487   69.8549   -2.4739 O   0  0  0  0  0  0  0  0  0  0  0  0
   22.6646   73.0187   -1.5741 O   0  0  0  0  0  0  0  0  0  0  0  0
   21.0593   71.2739   -2.0030 C   0  0  2  0  0  0  0  0  0  0  0  0
   20.1255   70.7009   -3.0694 C   0  0  2  0  0  0  0  0  0  0  0  0
   21.9952   72.3161   -2.6195 C   0  0  1  0  0  0  0  0  0  0  0  0
   19.4162   71.8195   -3.8337 C   0  0  1  0  0  0  0  0  0  0  0  0
   21.2252   73.3232   -3.4688 C   0  0  1  0  0  0  0  0  0  0  0  0
   21.2893   69.5525   -1.0612 H   0  0  0  0  0  0  0  0  0  0  0  0
   19.5918   69.1429   -1.9869 H   0  0  0  0  0  0  0  0  0  0  0  0
   23.1585   72.3890   -1.0260 H   0  0  0  0  0  0  0  0  0  0  0  0
   23.2736   73.4079   -4.6083 O   0  0  0  0  0  0  0  0  0  0  0  0
   21.9502   75.2621   -4.7083 O   0  0  0  0  0  0  0  0  0  0  0  0
   22.1577   74.1224   -4.3196 C   0  0  0  0  0  0  0  0  0  0  0  0
  1  4  1  0
  1 24  1  0
  1  2  1  6
  1  3  2  0
 25 28  1  0
 25 24  1  0
 25 26  1  6
 25 27  2  0
  6 11  1  0
  6 12  1  0
 29 36  1  0
 29 37  1  0
  9  7  1  1
  7 13  1  0
 10  8  1  6
  8 14  1  0
  4  5  1  0
 36 28  1  1
 33 30  1  6
 30 38  1  0
 34 31  1  1
 31 39  1  0
 35 32  1  1
 32 40  1  0
 41 43  1  0
 15 19  2  0
 42 43  2  0
 16 22  2  0
 12 17  1  1
 17 19  1  0
 17 20  1  0
 18 19  1  0
 18 22  1  0
 18 23  1  0
  9 10  1  0
  9 11  1  0
 10 12  1  0
 11  5  1  1
 33 34  1  0
 33 35  1  0
 34 36  1  0
 35 37  1  0
 37 43  1  6
 20 21  2  0
 21 22  1  0
M  CHG  3   2  -1  26  -1  41  -1
M  END
>  <COMPND>  (88) 
    udp_gluA.pdb 

>  <AUTHOR>  (88) 
    GENERATED BY OPEN BABEL 3.1.1

>  <MASTER>  (88) 
        0    0    0    0    0    0    0    0   56    0   56    0

>  <minimizedAffinity>  (88) 
-7.53160

>  <CNNscore>  (88) 
0.5322156549

>  <CNNaffinity>  (88) 
4.2178945541

>  <CNN_VS>  (88) 
2.2448294163

>  <CNNaffinity_variance>  (88) 
0.7916761637

$$$$
89
     RDKit          3D

 43 45  0  0  0  0  0  0  0  0999 V2000
   18.6471   70.5245   -8.7918 P   0  0  2  0  0  0  0  0  0  0  0  0
   19.1466   69.0482   -8.3559 O   0  0  0  0  0  0  0  0  0  0  0  0
   19.2551   71.0506  -10.0589 O   0  0  0  0  0  0  0  0  0  0  0  0
   18.8914   71.4237   -7.4691 O   0  0  0  0  0  0  0  0  0  0  0  0
   19.6586   72.6076   -7.5886 C   0  0  0  0  0  0  0  0  0  0  0  0
   18.7223   73.3043   -5.4873 O   0  0  0  0  0  0  0  0  0  0  0  0
   18.8896   76.1023   -6.5524 O   0  0  0  0  0  0  0  0  0  0  0  0
   21.0653   75.9570   -4.9149 O   0  0  0  0  0  0  0  0  0  0  0  0
   19.7828   75.0058   -6.7486 C   0  0  1  0  0  0  0  0  0  0  0  0
   20.5927   74.7585   -5.4936 C   0  0  2  0  0  0  0  0  0  0  0  0
   18.9511   73.7342   -6.8467 C   0  0  1  0  0  0  0  0  0  0  0  0
   19.5907   74.0371   -4.6085 C   0  0  2  0  0  0  0  0  0  0  0  0
   19.3981   76.9262   -6.4867 H   0  0  0  0  0  0  0  0  0  0  0  0
   21.6999   76.3782   -5.5163 H   0  0  0  0  0  0  0  0  0  0  0  0
   18.3663   72.9933   -2.2874 O   0  0  0  0  0  0  0  0  0  0  0  0
   22.1038   70.5222   -1.2060 O   0  0  0  0  0  0  0  0  0  0  0  0
   20.2210   73.1191   -3.7026 N   0  0  0  0  0  0  0  0  0  0  0  0
   20.2293   71.7643   -1.7505 N   0  0  0  0  0  0  0  0  0  0  0  0
   19.5185   72.6552   -2.5653 C   0  0  0  0  0  0  0  0  0  0  0  0
   21.5191   72.6865   -3.9451 C   0  0  0  0  0  0  0  0  0  0  0  0
   22.1836   71.8370   -3.1592 C   0  0  0  0  0  0  0  0  0  0  0  0
   21.5214   71.3056   -1.9499 C   0  0  0  0  0  0  0  0  0  0  0  0
   19.7616   71.4293   -0.9515 H   0  0  0  0  0  0  0  0  0  0  0  0
   17.0389   70.3663   -8.8317 O   0  0  0  0  0  0  0  0  0  0  0  0
   15.8674   71.2631   -8.1707 P   0  0  2  0  0  0  0  0  0  0  0  0
   14.5134   70.5493   -8.6972 O   0  0  0  0  0  0  0  0  0  0  0  0
   15.9587   72.7274   -8.4893 O   0  0  0  0  0  0  0  0  0  0  0  0
   15.9251   70.9157   -6.5963 O   0  0  0  0  0  0  0  0  0  0  0  0
   17.2237   69.3011   -5.4493 O   0  0  0  0  0  0  0  0  0  0  0  0
   13.8026   69.4258   -3.1365 O   0  0  0  0  0  0  0  0  0  0  0  0
   13.6210   69.4559   -6.0521 O   0  0  0  0  0  0  0  0  0  0  0  0
   16.2366   70.7188   -2.2123 O   0  0  0  0  0  0  0  0  0  0  0  0
   14.8132   69.9501   -3.9977 C   0  0  2  0  0  0  0  0  0  0  0  0
   14.8092   69.1810   -5.3191 C   0  0  2  0  0  0  0  0  0  0  0  0
   16.1629   69.7921   -3.2940 C   0  0  1  0  0  0  0  0  0  0  0  0
   16.0201   69.5565   -6.1743 C   0  0  1  0  0  0  0  0  0  0  0  0
   17.3233   70.0620   -4.2475 C   0  0  1  0  0  0  0  0  0  0  0  0
   12.9357   69.5154   -3.5629 H   0  0  0  0  0  0  0  0  0  0  0  0
   12.8486   69.2203   -5.5152 H   0  0  0  0  0  0  0  0  0  0  0  0
   15.5034   70.5579   -1.5980 H   0  0  0  0  0  0  0  0  0  0  0  0
   19.6366   69.7930   -4.5263 O   0  0  0  0  0  0  0  0  0  0  0  0
   18.7393   69.0965   -2.5492 O   0  0  0  0  0  0  0  0  0  0  0  0
   18.6137   69.5921   -3.6590 C   0  0  0  0  0  0  0  0  0  0  0  0
  1  4  1  0
  1 24  1  0
  1  2  1  1
  1  3  2  0
 25 28  1  0
 25 24  1  0
 25 26  1  6
 25 27  2  0
  6 11  1  0
  6 12  1  0
 29 36  1  0
 29 37  1  0
  9  7  1  1
  7 13  1  0
 10  8  1  1
  8 14  1  0
  4  5  1  0
 36 28  1  1
 33 30  1  1
 30 38  1  0
 34 31  1  6
 31 39  1  0
 35 32  1  1
 32 40  1  0
 41 43  1  0
 15 19  2  0
 42 43  2  0
 16 22  2  0
 12 17  1  1
 17 19  1  0
 17 20  1  0
 18 19  1  0
 18 22  1  0
 18 23  1  0
  9 10  1  0
  9 11  1  0
 10 12  1  0
 11  5  1  6
 33 34  1  0
 33 35  1  0
 34 36  1  0
 35 37  1  0
 37 43  1  1
 20 21  2  0
 21 22  1  0
M  CHG  3   2  -1  26  -1  41  -1
M  END
>  <COMPND>  (89) 
    udp_gluA.pdb 

>  <AUTHOR>  (89) 
    GENERATED BY OPEN BABEL 3.1.1

>  <MASTER>  (89) 
        0    0    0    0    0    0    0    0   56    0   56    0

>  <minimizedAffinity>  (89) 
-7.45484

>  <CNNscore>  (89) 
0.5019454956

>  <CNNaffinity>  (89) 
4.1238059998

>  <CNN_VS>  (89) 
2.0699257851

>  <CNNaffinity_variance>  (89) 
0.7405559421

$$$$
90
     RDKit          3D

 43 45  0  0  0  0  0  0  0  0999 V2000
   20.9186   73.6916   -6.5458 P   0  0  2  0  0  0  0  0  0  0  0  0
   20.1044   74.9934   -7.0571 O   0  0  0  0  0  0  0  0  0  0  0  0
   22.3596   73.6421   -6.9615 O   0  0  0  0  0  0  0  0  0  0  0  0
   20.0046   72.4471   -7.0294 O   0  0  0  0  0  0  0  0  0  0  0  0
   19.2462   72.5863   -8.2168 C   0  0  0  0  0  0  0  0  0  0  0  0
   18.7435   70.3198   -7.5941 O   0  0  0  0  0  0  0  0  0  0  0  0
   17.5119   70.0423  -10.3140 O   0  0  0  0  0  0  0  0  0  0  0  0
   15.3363   70.3915   -8.7076 O   0  0  0  0  0  0  0  0  0  0  0  0
   17.5216   71.1690   -9.4371 C   0  0  1  0  0  0  0  0  0  0  0  0
   16.5651   70.9447   -8.2851 C   0  0  2  0  0  0  0  0  0  0  0  0
   18.8696   71.2025   -8.7300 C   0  0  1  0  0  0  0  0  0  0  0  0
   17.3570   70.0003   -7.3969 C   0  0  2  0  0  0  0  0  0  0  0  0
   16.6603   69.9999  -10.7772 H   0  0  0  0  0  0  0  0  0  0  0  0
   14.8701   71.0308   -9.2696 H   0  0  0  0  0  0  0  0  0  0  0  0
   16.4146   67.9203   -5.7350 O   0  0  0  0  0  0  0  0  0  0  0  0
   16.1537   70.7135   -2.0780 O   0  0  0  0  0  0  0  0  0  0  0  0
   17.0350   70.1563   -6.0067 N   0  0  0  0  0  0  0  0  0  0  0  0
   16.2846   69.3137   -3.9155 N   0  0  0  0  0  0  0  0  0  0  0  0
   16.5689   69.0476   -5.2613 C   0  0  0  0  0  0  0  0  0  0  0  0
   17.1833   71.3953   -5.3952 C   0  0  0  0  0  0  0  0  0  0  0  0
   16.9083   71.6335   -4.1113 C   0  0  0  0  0  0  0  0  0  0  0  0
   16.4155   70.5288   -3.2627 C   0  0  0  0  0  0  0  0  0  0  0  0
   15.9567   68.5577   -3.3768 H   0  0  0  0  0  0  0  0  0  0  0  0
   20.6793   73.7187   -4.9474 O   0  0  0  0  0  0  0  0  0  0  0  0
   21.1775   72.7145   -3.7825 P   0  0  2  0  0  0  0  0  0  0  0  0
   22.7594   72.5526   -4.0852 O   0  0  0  0  0  0  0  0  0  0  0  0
   20.4233   71.4177   -3.7232 O   0  0  0  0  0  0  0  0  0  0  0  0
   21.1094   73.5909   -2.4298 O   0  0  0  0  0  0  0  0  0  0  0  0
   22.5343   75.2908   -1.5997 O   0  0  0  0  0  0  0  0  0  0  0  0
   21.3158   73.4386    1.8863 O   0  0  0  0  0  0  0  0  0  0  0  0
   22.0282   71.8534   -0.4619 O   0  0  0  0  0  0  0  0  0  0  0  0
   20.1883   76.0087    1.1285 O   0  0  0  0  0  0  0  0  0  0  0  0
   21.1872   73.8966    0.5403 C   0  0  2  0  0  0  0  0  0  0  0  0
   22.2681   73.2494   -0.3259 C   0  0  2  0  0  0  0  0  0  0  0  0
   21.3465   75.4186    0.5414 C   0  0  1  0  0  0  0  0  0  0  0  0
   22.3088   73.8855   -1.7160 C   0  0  1  0  0  0  0  0  0  0  0  0
   21.5065   75.9630   -0.8752 C   0  0  1  0  0  0  0  0  0  0  0  0
   21.2181   72.4737    1.9105 H   0  0  0  0  0  0  0  0  0  0  0  0
   22.0009   71.4434    0.4165 H   0  0  0  0  0  0  0  0  0  0  0  0
   20.0750   75.6705    2.0305 H   0  0  0  0  0  0  0  0  0  0  0  0
   22.0153   77.8966   -2.1014 O   0  0  0  0  0  0  0  0  0  0  0  0
   22.3047   77.9918    0.1583 O   0  0  0  0  0  0  0  0  0  0  0  0
   21.9851   77.3781   -0.8488 C   0  0  0  0  0  0  0  0  0  0  0  0
  1  4  1  0
  1 24  1  0
  1  2  1  6
  1  3  2  0
 25 28  1  0
 25 24  1  0
 25 26  1  6
 25 27  2  0
  6 11  1  0
  6 12  1  0
 29 36  1  0
 29 37  1  0
  9  7  1  6
  7 13  1  0
 10  8  1  6
  8 14  1  0
  4  5  1  0
 36 28  1  1
 33 30  1  1
 30 38  1  0
 34 31  1  6
 31 39  1  0
 35 32  1  6
 32 40  1  0
 41 43  1  0
 15 19  2  0
 42 43  2  0
 16 22  2  0
 12 17  1  1
 17 19  1  0
 17 20  1  0
 18 19  1  0
 18 22  1  0
 18 23  1  0
  9 10  1  0
  9 11  1  0
 10 12  1  0
 11  5  1  1
 33 34  1  0
 33 35  1  0
 34 36  1  0
 35 37  1  0
 37 43  1  1
 20 21  2  0
 21 22  1  0
M  CHG  3   2  -1  26  -1  41  -1
M  END
>  <COMPND>  (90) 
    udp_gluA.pdb 

>  <AUTHOR>  (90) 
    GENERATED BY OPEN BABEL 3.1.1

>  <MASTER>  (90) 
        0    0    0    0    0    0    0    0   56    0   56    0

>  <minimizedAffinity>  (90) 
-7.34235

>  <CNNscore>  (90) 
0.4771714211

>  <CNNaffinity>  (90) 
4.2144613266

>  <CNN_VS>  (90) 
2.0110204220

>  <CNNaffinity_variance>  (90) 
0.2956905365

$$$$
91
     RDKit          3D

 43 45  0  0  0  0  0  0  0  0999 V2000
   19.7390   72.2525   -3.6170 P   0  0  2  0  0  0  0  0  0  0  0  0
   20.5054   73.3613   -4.5126 O   0  0  0  0  0  0  0  0  0  0  0  0
   19.6473   70.8895   -4.2380 O   0  0  0  0  0  0  0  0  0  0  0  0
   18.3277   72.9551   -3.2527 O   0  0  0  0  0  0  0  0  0  0  0  0
   17.7077   73.7725   -4.2284 C   0  0  0  0  0  0  0  0  0  0  0  0
   15.8185   73.3085   -5.6402 O   0  0  0  0  0  0  0  0  0  0  0  0
   14.4876   72.2167   -3.1850 O   0  0  0  0  0  0  0  0  0  0  0  0
   15.3130   69.9576   -4.4699 O   0  0  0  0  0  0  0  0  0  0  0  0
   15.8597   72.1509   -3.5741 C   0  0  1  0  0  0  0  0  0  0  0  0
   16.0395   71.1478   -4.6938 C   0  0  2  0  0  0  0  0  0  0  0  0
   16.2167   73.4622   -4.2607 C   0  0  1  0  0  0  0  0  0  0  0  0
   15.5332   71.9244   -5.8973 C   0  0  2  0  0  0  0  0  0  0  0  0
   14.2362   71.3897   -2.7440 H   0  0  0  0  0  0  0  0  0  0  0  0
   15.6736   69.4998   -3.6938 H   0  0  0  0  0  0  0  0  0  0  0  0
   14.5230   69.9934   -7.6937 O   0  0  0  0  0  0  0  0  0  0  0  0
   18.1121   70.4985  -10.5409 O   0  0  0  0  0  0  0  0  0  0  0  0
   16.1833   71.5321   -7.1156 N   0  0  0  0  0  0  0  0  0  0  0  0
   16.3120   70.2460   -9.1095 N   0  0  0  0  0  0  0  0  0  0  0  0
   15.5916   70.5524   -7.9476 C   0  0  0  0  0  0  0  0  0  0  0  0
   17.3914   72.1163   -7.4763 C   0  0  0  0  0  0  0  0  0  0  0  0
   18.0663   71.8140   -8.5872 C   0  0  0  0  0  0  0  0  0  0  0  0
   17.5172   70.7995   -9.5105 C   0  0  0  0  0  0  0  0  0  0  0  0
   15.9209   69.5652   -9.7036 H   0  0  0  0  0  0  0  0  0  0  0  0
   20.5416   72.3009   -2.2147 O   0  0  0  0  0  0  0  0  0  0  0  0
   21.9409   71.6250   -1.7687 P   0  0  2  0  0  0  0  0  0  0  0  0
   22.8980   71.8766   -3.0497 O   0  0  0  0  0  0  0  0  0  0  0  0
   21.8258   70.1862   -1.3559 O   0  0  0  0  0  0  0  0  0  0  0  0
   22.5230   72.6047   -0.6268 O   0  0  0  0  0  0  0  0  0  0  0  0
   21.8023   73.9917    1.1525 O   0  0  0  0  0  0  0  0  0  0  0  0
   24.1958   76.5733   -1.0095 O   0  0  0  0  0  0  0  0  0  0  0  0
   22.3601   74.7592   -2.3783 O   0  0  0  0  0  0  0  0  0  0  0  0
   25.1648   75.4233    1.4784 O   0  0  0  0  0  0  0  0  0  0  0  0
   23.7779   75.3116   -0.4886 C   0  0  2  0  0  0  0  0  0  0  0  0
   22.3626   75.0001   -0.9759 C   0  0  2  0  0  0  0  0  0  0  0  0
   23.8080   75.3972    1.0390 C   0  0  1  0  0  0  0  0  0  0  0  0
   21.7944   73.7746   -0.2590 C   0  0  1  0  0  0  0  0  0  0  0  0
   23.1114   74.1992    1.6780 C   0  0  1  0  0  0  0  0  0  0  0  0
   24.1845   76.5428   -1.9791 H   0  0  0  0  0  0  0  0  0  0  0  0
   22.7197   75.5327   -2.8395 H   0  0  0  0  0  0  0  0  0  0  0  0
   25.6195   76.1812    1.0787 H   0  0  0  0  0  0  0  0  0  0  0  0
   21.5758   74.8502    3.3271 O   0  0  0  0  0  0  0  0  0  0  0  0
   23.6783   74.3046    4.0208 O   0  0  0  0  0  0  0  0  0  0  0  0
   22.8552   74.4465    3.1290 C   0  0  0  0  0  0  0  0  0  0  0  0
  1  4  1  0
  1 24  1  0
  1  2  1  6
  1  3  2  0
 25 28  1  0
 25 24  1  0
 25 26  1  6
 25 27  2  0
  6 11  1  0
  6 12  1  0
 29 36  1  0
 29 37  1  0
  9  7  1  6
  7 13  1  0
 10  8  1  1
  8 14  1  0
  4  5  1  0
 36 28  1  1
 33 30  1  6
 30 38  1  0
 34 31  1  6
 31 39  1  0
 35 32  1  1
 32 40  1  0
 41 43  1  0
 15 19  2  0
 42 43  2  0
 16 22  2  0
 12 17  1  6
 17 19  1  0
 17 20  1  0
 18 19  1  0
 18 22  1  0
 18 23  1  0
  9 10  1  0
  9 11  1  0
 10 12  1  0
 11  5  1  6
 33 34  1  0
 33 35  1  0
 34 36  1  0
 35 37  1  0
 37 43  1  1
 20 21  2  0
 21 22  1  0
M  CHG  3   2  -1  26  -1  41  -1
M  END
>  <COMPND>  (91) 
    udp_gluA.pdb 

>  <AUTHOR>  (91) 
    GENERATED BY OPEN BABEL 3.1.1

>  <MASTER>  (91) 
        0    0    0    0    0    0    0    0   56    0   56    0

>  <minimizedAffinity>  (91) 
-6.75419

>  <CNNscore>  (91) 
0.4654712677

>  <CNNaffinity>  (91) 
4.1696467400

>  <CNN_VS>  (91) 
1.9408507347

>  <CNNaffinity_variance>  (91) 
0.0383693948

$$$$
92
     RDKit          3D

 43 45  0  0  0  0  0  0  0  0999 V2000
   19.1969   74.2500   -6.4035 P   0  0  2  0  0  0  0  0  0  0  0  0
   17.8422   74.7318   -5.6609 O   0  0  0  0  0  0  0  0  0  0  0  0
   19.8132   72.9994   -5.8486 O   0  0  0  0  0  0  0  0  0  0  0  0
   20.1390   75.5654   -6.3850 O   0  0  0  0  0  0  0  0  0  0  0  0
   21.5298   75.3981   -6.1800 C   0  0  0  0  0  0  0  0  0  0  0  0
   21.6235   75.7863   -3.8097 O   0  0  0  0  0  0  0  0  0  0  0  0
   23.7713   77.7906   -4.4108 O   0  0  0  0  0  0  0  0  0  0  0  0
   25.1967   75.6260   -3.5631 O   0  0  0  0  0  0  0  0  0  0  0  0
   23.4991   76.5404   -5.0444 C   0  0  1  0  0  0  0  0  0  0  0  0
   23.9349   75.3959   -4.1542 C   0  0  2  0  0  0  0  0  0  0  0  0
   21.9885   76.3540   -5.0863 C   0  0  1  0  0  0  0  0  0  0  0  0
   22.8113   75.3451   -3.1330 C   0  0  2  0  0  0  0  0  0  0  0  0
   24.7306   77.9319   -4.3724 H   0  0  0  0  0  0  0  0  0  0  0  0
   25.8779   75.6494   -4.2540 H   0  0  0  0  0  0  0  0  0  0  0  0
   22.6041   74.7064   -0.3897 O   0  0  0  0  0  0  0  0  0  0  0  0
   21.9758   70.2303   -1.2921 O   0  0  0  0  0  0  0  0  0  0  0  0
   22.5936   74.0208   -2.6232 N   0  0  0  0  0  0  0  0  0  0  0  0
   22.2924   72.4775   -0.8417 N   0  0  0  0  0  0  0  0  0  0  0  0
   22.5050   73.8076   -1.2272 C   0  0  0  0  0  0  0  0  0  0  0  0
   22.4686   72.9513   -3.5015 C   0  0  0  0  0  0  0  0  0  0  0  0
   22.2661   71.6890   -3.1191 C   0  0  0  0  0  0  0  0  0  0  0  0
   22.1623   71.3804   -1.6778 C   0  0  0  0  0  0  0  0  0  0  0  0
   22.2293   72.3040    0.1253 H   0  0  0  0  0  0  0  0  0  0  0  0
   18.7453   74.1482   -7.9522 O   0  0  0  0  0  0  0  0  0  0  0  0
   18.1303   72.9165   -8.7997 P   0  0  2  0  0  0  0  0  0  0  0  0
   19.4132   71.9607   -9.0470 O   0  0  0  0  0  0  0  0  0  0  0  0
   17.4151   73.3283  -10.0539 O   0  0  0  0  0  0  0  0  0  0  0  0
   17.2178   72.1080   -7.7433 O   0  0  0  0  0  0  0  0  0  0  0  0
   17.9476   70.1312   -6.6622 O   0  0  0  0  0  0  0  0  0  0  0  0
   13.8423   69.8010   -6.3365 O   0  0  0  0  0  0  0  0  0  0  0  0
   15.0608   70.7252   -8.8256 O   0  0  0  0  0  0  0  0  0  0  0  0
   15.4320   70.5712   -4.0277 O   0  0  0  0  0  0  0  0  0  0  0  0
   15.0928   70.4856   -6.4116 C   0  0  2  0  0  0  0  0  0  0  0  0
   15.7786   70.1549   -7.7374 C   0  0  2  0  0  0  0  0  0  0  0  0
   15.9563   70.0234   -5.2358 C   0  0  1  0  0  0  0  0  0  0  0  0
   17.2142   70.6816   -7.7571 C   0  0  1  0  0  0  0  0  0  0  0  0
   17.4029   70.4832   -5.3924 C   0  0  1  0  0  0  0  0  0  0  0  0
   13.2766   70.0788   -7.0741 H   0  0  0  0  0  0  0  0  0  0  0  0
   14.1488   70.3956   -8.8191 H   0  0  0  0  0  0  0  0  0  0  0  0
   14.5116   70.2863   -3.9162 H   0  0  0  0  0  0  0  0  0  0  0  0
   17.5637   69.0382   -3.5518 O   0  0  0  0  0  0  0  0  0  0  0  0
   19.5157   69.8148   -4.4381 O   0  0  0  0  0  0  0  0  0  0  0  0
   18.2949   69.7638   -4.4337 C   0  0  0  0  0  0  0  0  0  0  0  0
  1  4  1  0
  1 24  1  0
  1  2  1  1
  1  3  2  0
 25 28  1  0
 25 24  1  0
 25 26  1  6
 25 27  2  0
  6 11  1  0
  6 12  1  0
 29 36  1  0
 29 37  1  0
  9  7  1  1
  7 13  1  0
 10  8  1  1
  8 14  1  0
  4  5  1  0
 36 28  1  1
 33 30  1  6
 30 38  1  0
 34 31  1  6
 31 39  1  0
 35 32  1  1
 32 40  1  0
 41 43  1  0
 15 19  2  0
 42 43  2  0
 16 22  2  0
 12 17  1  6
 17 19  1  0
 17 20  1  0
 18 19  1  0
 18 22  1  0
 18 23  1  0
  9 10  1  0
  9 11  1  0
 10 12  1  0
 11  5  1  6
 33 34  1  0
 33 35  1  0
 34 36  1  0
 35 37  1  0
 37 43  1  1
 20 21  2  0
 21 22  1  0
M  CHG  3   2  -1  26  -1  41  -1
M  END
>  <COMPND>  (92) 
    udp_gluA.pdb 

>  <AUTHOR>  (92) 
    GENERATED BY OPEN BABEL 3.1.1

>  <MASTER>  (92) 
        0    0    0    0    0    0    0    0   56    0   56    0

>  <minimizedAffinity>  (92) 
-6.69900

>  <CNNscore>  (92) 
0.4621614218

>  <CNNaffinity>  (92) 
4.2046365738

>  <CNN_VS>  (92) 
1.9432208538

>  <CNNaffinity_variance>  (92) 
0.2770426273

$$$$
93
     RDKit          3D

 43 45  0  0  0  0  0  0  0  0999 V2000
   15.8126   70.7546   -3.7485 P   0  0  2  0  0  0  0  0  0  0  0  0
   15.7512   69.1941   -4.1727 O   0  0  0  0  0  0  0  0  0  0  0  0
   15.4006   71.0435   -2.3348 O   0  0  0  0  0  0  0  0  0  0  0  0
   14.9543   71.5036   -4.8975 O   0  0  0  0  0  0  0  0  0  0  0  0
   15.5871   72.5103   -5.6660 C   0  0  0  0  0  0  0  0  0  0  0  0
   16.2907   72.9514   -7.9217 O   0  0  0  0  0  0  0  0  0  0  0  0
   14.5651   70.6313   -8.7162 O   0  0  0  0  0  0  0  0  0  0  0  0
   17.0662   69.5447   -8.7261 O   0  0  0  0  0  0  0  0  0  0  0  0
   15.3584   70.8072   -7.5421 C   0  0  1  0  0  0  0  0  0  0  0  0
   16.8269   70.6441   -7.8725 C   0  0  2  0  0  0  0  0  0  0  0  0
   15.2833   72.2738   -7.1399 C   0  0  1  0  0  0  0  0  0  0  0  0
   17.1524   71.9752   -8.5283 C   0  0  2  0  0  0  0  0  0  0  0  0
   14.5976   69.7016   -8.9924 H   0  0  0  0  0  0  0  0  0  0  0  0
   16.8441   68.7213   -8.2627 H   0  0  0  0  0  0  0  0  0  0  0  0
   19.3237   71.0591  -10.0847 O   0  0  0  0  0  0  0  0  0  0  0  0
   22.3505   73.5455   -7.6557 O   0  0  0  0  0  0  0  0  0  0  0  0
   18.5183   72.3671   -8.3244 N   0  0  0  0  0  0  0  0  0  0  0  0
   20.8293   72.2975   -8.8728 N   0  0  0  0  0  0  0  0  0  0  0  0
   19.5339   71.8486   -9.1621 C   0  0  0  0  0  0  0  0  0  0  0  0
   18.8401   73.2561   -7.3060 C   0  0  0  0  0  0  0  0  0  0  0  0
   20.0795   73.6749   -7.0426 C   0  0  0  0  0  0  0  0  0  0  0  0
   21.1987   73.1801   -7.8707 C   0  0  0  0  0  0  0  0  0  0  0  0
   21.5535   71.9487   -9.4413 H   0  0  0  0  0  0  0  0  0  0  0  0
   17.3343   71.1677   -4.1042 O   0  0  0  0  0  0  0  0  0  0  0  0
   18.7433   70.5037   -3.6712 P   0  0  2  0  0  0  0  0  0  0  0  0
   19.3449   69.9650   -5.0741 O   0  0  0  0  0  0  0  0  0  0  0  0
   18.6272   69.4538   -2.6043 O   0  0  0  0  0  0  0  0  0  0  0  0
   19.6824   71.7555   -3.2793 O   0  0  0  0  0  0  0  0  0  0  0  0
   21.5847   72.8663   -4.1491 O   0  0  0  0  0  0  0  0  0  0  0  0
   22.5788   72.4985   -0.1561 O   0  0  0  0  0  0  0  0  0  0  0  0
   21.3158   70.2810   -1.5781 O   0  0  0  0  0  0  0  0  0  0  0  0
   21.7172   75.0651   -1.2148 O   0  0  0  0  0  0  0  0  0  0  0  0
   21.7020   72.6565   -1.2715 C   0  0  2  0  0  0  0  0  0  0  0  0
   21.8344   71.4502   -2.2015 C   0  0  2  0  0  0  0  0  0  0  0  0
   22.0968   73.9401   -2.0053 C   0  0  1  0  0  0  0  0  0  0  0  0
   21.0876   71.6873   -3.5148 C   0  0  1  0  0  0  0  0  0  0  0  0
   21.4053   74.0415   -3.3618 C   0  0  1  0  0  0  0  0  0  0  0  0
   22.3468   71.6888    0.3256 H   0  0  0  0  0  0  0  0  0  0  0  0
   21.7850   70.1246   -0.7439 H   0  0  0  0  0  0  0  0  0  0  0  0
   22.1505   75.0126   -0.3486 H   0  0  0  0  0  0  0  0  0  0  0  0
   21.3671   76.2786   -4.0655 O   0  0  0  0  0  0  0  0  0  0  0  0
   23.0177   74.9509   -4.9093 O   0  0  0  0  0  0  0  0  0  0  0  0
   22.0350   75.1061   -4.1999 C   0  0  0  0  0  0  0  0  0  0  0  0
  1  4  1  0
  1 24  1  0
  1  2  1  6
  1  3  2  0
 25 28  1  0
 25 24  1  0
 25 26  1  6
 25 27  2  0
  6 11  1  0
  6 12  1  0
 29 36  1  0
 29 37  1  0
  9  7  1  6
  7 13  1  0
 10  8  1  6
  8 14  1  0
  4  5  1  0
 36 28  1  1
 33 30  1  1
 30 38  1  0
 34 31  1  1
 31 39  1  0
 35 32  1  1
 32 40  1  0
 41 43  1  0
 15 19  2  0
 42 43  2  0
 16 22  2  0
 12 17  1  1
 17 19  1  0
 17 20  1  0
 18 19  1  0
 18 22  1  0
 18 23  1  0
  9 10  1  0
  9 11  1  0
 10 12  1  0
 11  5  1  1
 33 34  1  0
 33 35  1  0
 34 36  1  0
 35 37  1  0
 37 43  1  6
 20 21  2  0
 21 22  1  0
M  CHG  3   2  -1  26  -1  41  -1
M  END
>  <COMPND>  (93) 
    udp_gluA.pdb 

>  <AUTHOR>  (93) 
    GENERATED BY OPEN BABEL 3.1.1

>  <MASTER>  (93) 
        0    0    0    0    0    0    0    0   56    0   56    0

>  <minimizedAffinity>  (93) 
-7.87549

>  <CNNscore>  (93) 
0.4605294168

>  <CNNaffinity>  (93) 
4.2472181320

>  <CNN_VS>  (93) 
1.9559688568

>  <CNNaffinity_variance>  (93) 
0.3827765584

$$$$
94
     RDKit          3D

 43 45  0  0  0  0  0  0  0  0999 V2000
   21.2498   71.3611   -2.1825 P   0  0  2  0  0  0  0  0  0  0  0  0
   22.2818   71.2819   -3.4265 O   0  0  0  0  0  0  0  0  0  0  0  0
   21.8897   71.3314   -0.8255 O   0  0  0  0  0  0  0  0  0  0  0  0
   20.1865   70.1793   -2.4839 O   0  0  0  0  0  0  0  0  0  0  0  0
   19.4848   70.1985   -3.7135 C   0  0  0  0  0  0  0  0  0  0  0  0
   17.6254   71.3535   -4.7065 O   0  0  0  0  0  0  0  0  0  0  0  0
   15.9911   70.2989   -2.4243 O   0  0  0  0  0  0  0  0  0  0  0  0
   15.3296   68.6106   -4.4609 O   0  0  0  0  0  0  0  0  0  0  0  0
   17.0640   69.6761   -3.1310 C   0  0  1  0  0  0  0  0  0  0  0  0
   16.5992   69.2279   -4.5004 C   0  0  2  0  0  0  0  0  0  0  0  0
   18.0851   70.7512   -3.4772 C   0  0  1  0  0  0  0  0  0  0  0  0
   16.5899   70.5354   -5.2739 C   0  0  2  0  0  0  0  0  0  0  0  0
   15.3259   69.6316   -2.1922 H   0  0  0  0  0  0  0  0  0  0  0  0
   15.3882   67.7826   -3.9579 H   0  0  0  0  0  0  0  0  0  0  0  0
   14.6401   70.7179   -7.3089 O   0  0  0  0  0  0  0  0  0  0  0  0
   17.7283   69.7937  -10.6032 O   0  0  0  0  0  0  0  0  0  0  0  0
   16.8571   70.3470   -6.6718 N   0  0  0  0  0  0  0  0  0  0  0  0
   16.1798   70.2564   -8.9476 N   0  0  0  0  0  0  0  0  0  0  0  0
   15.8064   70.4603   -7.6127 C   0  0  0  0  0  0  0  0  0  0  0  0
   18.1470   70.0555   -7.0983 C   0  0  0  0  0  0  0  0  0  0  0  0
   18.4877   69.8639   -8.3742 C   0  0  0  0  0  0  0  0  0  0  0  0
   17.4489   69.9637   -9.4203 C   0  0  0  0  0  0  0  0  0  0  0  0
   15.4650   70.3282   -9.6208 H   0  0  0  0  0  0  0  0  0  0  0  0
   20.4029   72.7011   -2.4984 O   0  0  0  0  0  0  0  0  0  0  0  0
   20.8659   74.2453   -2.6205 P   0  0  2  0  0  0  0  0  0  0  0  0
   22.4776   74.1589   -2.4980 O   0  0  0  0  0  0  0  0  0  0  0  0
   20.2183   75.1629   -1.6242 O   0  0  0  0  0  0  0  0  0  0  0  0
   20.5949   74.6332   -4.1627 O   0  0  0  0  0  0  0  0  0  0  0  0
   19.1398   73.7356   -5.8017 O   0  0  0  0  0  0  0  0  0  0  0  0
   22.4452   74.7358   -8.0693 O   0  0  0  0  0  0  0  0  0  0  0  0
   22.7699   73.4760   -5.4535 O   0  0  0  0  0  0  0  0  0  0  0  0
   20.0583   76.3928   -8.1592 O   0  0  0  0  0  0  0  0  0  0  0  0
   21.5139   74.8659   -6.9952 C   0  0  2  0  0  0  0  0  0  0  0  0
   21.5321   73.5952   -6.1452 C   0  0  2  0  0  0  0  0  0  0  0  0
   20.1242   75.0832   -7.5979 C   0  0  1  0  0  0  0  0  0  0  0  0
   20.3912   73.6018   -5.1268 C   0  0  1  0  0  0  0  0  0  0  0  0
   19.0315   74.9500   -6.5411 C   0  0  1  0  0  0  0  0  0  0  0  0
   23.3358   74.5968   -7.7102 H   0  0  0  0  0  0  0  0  0  0  0  0
   23.4984   73.4715   -6.0937 H   0  0  0  0  0  0  0  0  0  0  0  0
   20.7488   76.4907   -8.8334 H   0  0  0  0  0  0  0  0  0  0  0  0
   17.3054   76.0225   -7.7123 O   0  0  0  0  0  0  0  0  0  0  0  0
   17.0159   73.8139   -7.2252 O   0  0  0  0  0  0  0  0  0  0  0  0
   17.6862   74.8345   -7.1806 C   0  0  0  0  0  0  0  0  0  0  0  0
  1  4  1  0
  1 24  1  0
  1  2  1  6
  1  3  2  0
 25 28  1  0
 25 24  1  0
 25 26  1  1
 25 27  2  0
  6 11  1  0
  6 12  1  0
 29 36  1  0
 29 37  1  0
  9  7  1  1
  7 13  1  0
 10  8  1  1
  8 14  1  0
  4  5  1  0
 36 28  1  1
 33 30  1  6
 30 38  1  0
 34 31  1  1
 31 39  1  0
 35 32  1  1
 32 40  1  0
 41 43  1  0
 15 19  2  0
 42 43  2  0
 16 22  2  0
 12 17  1  6
 17 19  1  0
 17 20  1  0
 18 19  1  0
 18 22  1  0
 18 23  1  0
  9 10  1  0
  9 11  1  0
 10 12  1  0
 11  5  1  6
 33 34  1  0
 33 35  1  0
 34 36  1  0
 35 37  1  0
 37 43  1  6
 20 21  2  0
 21 22  1  0
M  CHG  3   2  -1  26  -1  41  -1
M  END
>  <COMPND>  (94) 
    udp_gluA.pdb 

>  <AUTHOR>  (94) 
    GENERATED BY OPEN BABEL 3.1.1

>  <MASTER>  (94) 
        0    0    0    0    0    0    0    0   56    0   56    0

>  <minimizedAffinity>  (94) 
-7.65057

>  <CNNscore>  (94) 
0.4297136068

>  <CNNaffinity>  (94) 
4.0641927719

>  <CNN_VS>  (94) 
1.7464389801

>  <CNNaffinity_variance>  (94) 
0.8138821721

$$$$
95
     RDKit          3D

 43 45  0  0  0  0  0  0  0  0999 V2000
   19.7701   71.3226   -3.1765 P   0  0  2  0  0  0  0  0  0  0  0  0
   20.6012   70.2149   -2.3392 O   0  0  0  0  0  0  0  0  0  0  0  0
   19.0054   72.3064   -2.3404 O   0  0  0  0  0  0  0  0  0  0  0  0
   18.8887   70.4460   -4.2122 O   0  0  0  0  0  0  0  0  0  0  0  0
   17.8401   69.6454   -3.6985 C   0  0  0  0  0  0  0  0  0  0  0  0
   16.6047   71.1531   -5.1050 O   0  0  0  0  0  0  0  0  0  0  0  0
   14.1487   70.1473   -3.7093 O   0  0  0  0  0  0  0  0  0  0  0  0
   14.1000   68.7741   -6.0647 O   0  0  0  0  0  0  0  0  0  0  0  0
   15.3328   69.4394   -4.0773 C   0  0  1  0  0  0  0  0  0  0  0  0
   15.3545   69.1953   -5.5713 C   0  0  2  0  0  0  0  0  0  0  0  0
   16.5178   70.3770   -3.8904 C   0  0  1  0  0  0  0  0  0  0  0  0
   15.7668   70.5557   -6.1072 C   0  0  2  0  0  0  0  0  0  0  0  0
   13.3778   69.5685   -3.8204 H   0  0  0  0  0  0  0  0  0  0  0  0
   13.8829   67.9035   -5.6947 H   0  0  0  0  0  0  0  0  0  0  0  0
   15.4554   72.3154   -8.2942 O   0  0  0  0  0  0  0  0  0  0  0  0
   18.6468   70.0950  -10.7699 O   0  0  0  0  0  0  0  0  0  0  0  0
   16.5036   70.4604   -7.3356 N   0  0  0  0  0  0  0  0  0  0  0  0
   17.0445   71.2072   -9.5256 N   0  0  0  0  0  0  0  0  0  0  0  0
   16.2713   71.3949   -8.3723 C   0  0  0  0  0  0  0  0  0  0  0  0
   17.4446   69.4518   -7.5035 C   0  0  0  0  0  0  0  0  0  0  0  0
   18.1740   69.2857   -8.6085 C   0  0  0  0  0  0  0  0  0  0  0  0
   17.9918   70.2191   -9.7395 C   0  0  0  0  0  0  0  0  0  0  0  0
   16.8989   71.8443  -10.2619 H   0  0  0  0  0  0  0  0  0  0  0  0
   20.8993   71.9813   -4.1273 O   0  0  0  0  0  0  0  0  0  0  0  0
   21.5168   73.4749   -4.1636 P   0  0  2  0  0  0  0  0  0  0  0  0
   23.0124   73.2429   -4.7378 O   0  0  0  0  0  0  0  0  0  0  0  0
   21.4646   74.1951   -2.8474 O   0  0  0  0  0  0  0  0  0  0  0  0
   20.7304   74.2139   -5.3628 O   0  0  0  0  0  0  0  0  0  0  0  0
   18.8849   75.6941   -5.2512 O   0  0  0  0  0  0  0  0  0  0  0  0
   18.2590   73.8428   -8.8912 O   0  0  0  0  0  0  0  0  0  0  0  0
   19.1222   72.2926   -6.5704 O   0  0  0  0  0  0  0  0  0  0  0  0
   19.2881   76.5599   -8.7938 O   0  0  0  0  0  0  0  0  0  0  0  0
   19.0324   74.3733   -7.8149 C   0  0  2  0  0  0  0  0  0  0  0  0
   18.6760   73.6428   -6.5199 C   0  0  2  0  0  0  0  0  0  0  0  0
   18.7102   75.8642   -7.6909 C   0  0  1  0  0  0  0  0  0  0  0  0
   19.3098   74.3320   -5.3108 C   0  0  1  0  0  0  0  0  0  0  0  0
   19.2701   76.4494   -6.3976 C   0  0  1  0  0  0  0  0  0  0  0  0
   18.4472   72.8961   -8.9889 H   0  0  0  0  0  0  0  0  0  0  0  0
   18.7241   71.8493   -7.3355 H   0  0  0  0  0  0  0  0  0  0  0  0
   18.9402   76.1969   -9.6233 H   0  0  0  0  0  0  0  0  0  0  0  0
   19.3329   78.7540   -6.8296 O   0  0  0  0  0  0  0  0  0  0  0  0
   17.7405   78.0112   -5.3764 O   0  0  0  0  0  0  0  0  0  0  0  0
   18.6811   77.7954   -6.1259 C   0  0  0  0  0  0  0  0  0  0  0  0
  1  4  1  0
  1 24  1  0
  1  2  1  1
  1  3  2  0
 25 28  1  0
 25 24  1  0
 25 26  1  6
 25 27  2  0
  6 11  1  0
  6 12  1  0
 29 36  1  0
 29 37  1  0
  9  7  1  6
  7 13  1  0
 10  8  1  6
  8 14  1  0
  4  5  1  0
 36 28  1  6
 33 30  1  6
 30 38  1  0
 34 31  1  6
 31 39  1  0
 35 32  1  6
 32 40  1  0
 41 43  1  0
 15 19  2  0
 42 43  2  0
 16 22  2  0
 12 17  1  6
 17 19  1  0
 17 20  1  0
 18 19  1  0
 18 22  1  0
 18 23  1  0
  9 10  1  0
  9 11  1  0
 10 12  1  0
 11  5  1  6
 33 34  1  0
 33 35  1  0
 34 36  1  0
 35 37  1  0
 37 43  1  1
 20 21  2  0
 21 22  1  0
M  CHG  3   2  -1  26  -1  41  -1
M  END
>  <COMPND>  (95) 
    udp_gluA.pdb 

>  <AUTHOR>  (95) 
    GENERATED BY OPEN BABEL 3.1.1

>  <MASTER>  (95) 
        0    0    0    0    0    0    0    0   56    0   56    0

>  <minimizedAffinity>  (95) 
-6.35285

>  <CNNscore>  (95) 
0.4182457030

>  <CNNaffinity>  (95) 
4.0444531441

>  <CNN_VS>  (95) 
1.6915751696

>  <CNNaffinity_variance>  (95) 
0.6775410175

$$$$
96
     RDKit          3D

 43 45  0  0  0  0  0  0  0  0999 V2000
   19.4673   75.6269   -7.3360 P   0  0  2  0  0  0  0  0  0  0  0  0
   18.0905   76.1432   -6.6601 O   0  0  0  0  0  0  0  0  0  0  0  0
   20.3784   76.7134   -7.8270 O   0  0  0  0  0  0  0  0  0  0  0  0
   18.9771   74.5632   -8.4524 O   0  0  0  0  0  0  0  0  0  0  0  0
   18.2262   73.4391   -8.0315 C   0  0  0  0  0  0  0  0  0  0  0  0
   18.8288   71.1803   -7.4727 O   0  0  0  0  0  0  0  0  0  0  0  0
   19.2131   70.7520  -10.4156 O   0  0  0  0  0  0  0  0  0  0  0  0
   16.7670   69.6342   -9.9652 O   0  0  0  0  0  0  0  0  0  0  0  0
   18.2441   71.5521   -9.7378 C   0  0  1  0  0  0  0  0  0  0  0  0
   17.1879   70.6716   -9.1043 C   0  0  2  0  0  0  0  0  0  0  0  0
   18.9153   72.1713   -8.5195 C   0  0  1  0  0  0  0  0  0  0  0  0
   17.9080   70.1525   -7.8715 C   0  0  2  0  0  0  0  0  0  0  0  0
   18.8074   70.3458  -11.1979 H   0  0  0  0  0  0  0  0  0  0  0  0
   16.3141   70.0158  -10.7341 H   0  0  0  0  0  0  0  0  0  0  0  0
   18.7241   69.3607   -5.2862 O   0  0  0  0  0  0  0  0  0  0  0  0
   14.3734   69.1466   -3.7797 O   0  0  0  0  0  0  0  0  0  0  0  0
   17.0095   69.8833   -6.7847 N   0  0  0  0  0  0  0  0  0  0  0  0
   16.5564   69.2538   -4.5386 N   0  0  0  0  0  0  0  0  0  0  0  0
   17.5222   69.4915   -5.5254 C   0  0  0  0  0  0  0  0  0  0  0  0
   15.6382   70.0096   -6.9709 C   0  0  0  0  0  0  0  0  0  0  0  0
   14.7299   69.7797   -6.0207 C   0  0  0  0  0  0  0  0  0  0  0  0
   15.1823   69.3654   -4.6764 C   0  0  0  0  0  0  0  0  0  0  0  0
   16.8892   68.9779   -3.6541 H   0  0  0  0  0  0  0  0  0  0  0  0
   20.1030   74.6824   -6.1886 O   0  0  0  0  0  0  0  0  0  0  0  0
   21.5263   73.9198   -6.1096 P   0  0  2  0  0  0  0  0  0  0  0  0
   22.5191   75.0504   -5.5124 O   0  0  0  0  0  0  0  0  0  0  0  0
   21.9791   73.3245   -7.4114 O   0  0  0  0  0  0  0  0  0  0  0  0
   21.3540   72.8547   -4.9103 O   0  0  0  0  0  0  0  0  0  0  0  0
   19.7050   73.3302   -3.2782 O   0  0  0  0  0  0  0  0  0  0  0  0
   21.8488   70.3076   -1.4516 O   0  0  0  0  0  0  0  0  0  0  0  0
   23.2298   72.4360   -2.8998 O   0  0  0  0  0  0  0  0  0  0  0  0
   19.2433   69.7512   -2.6148 O   0  0  0  0  0  0  0  0  0  0  0  0
   21.2864   71.0266   -2.5492 C   0  0  2  0  0  0  0  0  0  0  0  0
   21.8458   72.4493   -2.5694 C   0  0  2  0  0  0  0  0  0  0  0  0
   19.7671   71.0546   -2.3674 C   0  0  1  0  0  0  0  0  0  0  0  0
   21.0997   73.3162   -3.5848 C   0  0  1  0  0  0  0  0  0  0  0  0
   19.1086   72.0362   -3.3326 C   0  0  1  0  0  0  0  0  0  0  0  0
   22.8139   70.2768   -1.5456 H   0  0  0  0  0  0  0  0  0  0  0  0
   23.7092   71.8875   -2.2597 H   0  0  0  0  0  0  0  0  0  0  0  0
   19.6545   69.1168   -2.0071 H   0  0  0  0  0  0  0  0  0  0  0  0
   17.3409   73.5752   -3.2420 O   0  0  0  0  0  0  0  0  0  0  0  0
   16.9481   71.4898   -2.4079 O   0  0  0  0  0  0  0  0  0  0  0  0
   17.6932   72.3022   -2.9350 C   0  0  0  0  0  0  0  0  0  0  0  0
  1  4  1  0
  1 24  1  0
  1  2  1  1
  1  3  2  0
 25 28  1  0
 25 24  1  0
 25 26  1  1
 25 27  2  0
  6 11  1  0
  6 12  1  0
 29 36  1  0
 29 37  1  0
  9  7  1  1
  7 13  1  0
 10  8  1  6
  8 14  1  0
  4  5  1  0
 36 28  1  6
 33 30  1  1
 30 38  1  0
 34 31  1  6
 31 39  1  0
 35 32  1  6
 32 40  1  0
 41 43  1  0
 15 19  2  0
 42 43  2  0
 16 22  2  0
 12 17  1  1
 17 19  1  0
 17 20  1  0
 18 19  1  0
 18 22  1  0
 18 23  1  0
  9 10  1  0
  9 11  1  0
 10 12  1  0
 11  5  1  1
 33 34  1  0
 33 35  1  0
 34 36  1  0
 35 37  1  0
 37 43  1  1
 20 21  2  0
 21 22  1  0
M  CHG  3   2  -1  26  -1  41  -1
M  END
>  <COMPND>  (96) 
    udp_gluA.pdb 

>  <AUTHOR>  (96) 
    GENERATED BY OPEN BABEL 3.1.1

>  <MASTER>  (96) 
        0    0    0    0    0    0    0    0   56    0   56    0

>  <minimizedAffinity>  (96) 
-7.45711

>  <CNNscore>  (96) 
0.4119234681

>  <CNNaffinity>  (96) 
4.0812072754

>  <CNN_VS>  (96) 
1.6811450720

>  <CNNaffinity_variance>  (96) 
0.8816178441

$$$$
97
     RDKit          3D

 43 45  0  0  0  0  0  0  0  0999 V2000
   21.0372   71.3165   -2.0534 P   0  0  2  0  0  0  0  0  0  0  0  0
   22.2149   70.5489   -1.2518 O   0  0  0  0  0  0  0  0  0  0  0  0
   20.2802   72.3315   -1.2483 O   0  0  0  0  0  0  0  0  0  0  0  0
   20.1520   70.1182   -2.6846 O   0  0  0  0  0  0  0  0  0  0  0  0
   19.5113   70.3339   -3.9286 C   0  0  0  0  0  0  0  0  0  0  0  0
   17.5638   71.3412   -4.9137 O   0  0  0  0  0  0  0  0  0  0  0  0
   16.0474   70.2702   -2.5589 O   0  0  0  0  0  0  0  0  0  0  0  0
   15.4438   68.4765   -4.5221 O   0  0  0  0  0  0  0  0  0  0  0  0
   17.1400   69.6885   -3.2706 C   0  0  1  0  0  0  0  0  0  0  0  0
   16.6727   69.1666   -4.6128 C   0  0  2  0  0  0  0  0  0  0  0  0
   18.0864   70.8099   -3.6768 C   0  0  1  0  0  0  0  0  0  0  0  0
   16.5673   70.4439   -5.4285 C   0  0  2  0  0  0  0  0  0  0  0  0
   15.4290   69.5728   -2.2889 H   0  0  0  0  0  0  0  0  0  0  0  0
   15.5634   67.6713   -3.9937 H   0  0  0  0  0  0  0  0  0  0  0  0
   14.8483   71.2887   -7.5041 O   0  0  0  0  0  0  0  0  0  0  0  0
   17.6147   69.5452  -10.7523 O   0  0  0  0  0  0  0  0  0  0  0  0
   16.8141   70.2239   -6.8255 N   0  0  0  0  0  0  0  0  0  0  0  0
   16.2273   70.4186   -9.1198 N   0  0  0  0  0  0  0  0  0  0  0  0
   15.8867   70.6886   -7.7879 C   0  0  0  0  0  0  0  0  0  0  0  0
   17.9638   69.5566   -7.2300 C   0  0  0  0  0  0  0  0  0  0  0  0
   18.2749   69.3068   -8.5034 C   0  0  0  0  0  0  0  0  0  0  0  0
   17.3585   69.7582   -9.5711 C   0  0  0  0  0  0  0  0  0  0  0  0
   15.5959   70.7307   -9.8078 H   0  0  0  0  0  0  0  0  0  0  0  0
   21.8070   71.9171   -3.3417 O   0  0  0  0  0  0  0  0  0  0  0  0
   21.9082   73.4276   -3.9089 P   0  0  2  0  0  0  0  0  0  0  0  0
   23.0824   73.3281   -5.0186 O   0  0  0  0  0  0  0  0  0  0  0  0
   22.1427   74.4678   -2.8520 O   0  0  0  0  0  0  0  0  0  0  0  0
   20.5562   73.6351   -4.7641 O   0  0  0  0  0  0  0  0  0  0  0  0
   20.1765   74.1577   -7.0427 O   0  0  0  0  0  0  0  0  0  0  0  0
   17.0970   76.1942   -5.1886 O   0  0  0  0  0  0  0  0  0  0  0  0
   19.7833   76.2072   -4.0407 O   0  0  0  0  0  0  0  0  0  0  0  0
   16.5609   73.7126   -6.6048 O   0  0  0  0  0  0  0  0  0  0  0  0
   18.0471   75.1425   -5.3591 C   0  0  2  0  0  0  0  0  0  0  0  0
   19.4616   75.7225   -5.3392 C   0  0  2  0  0  0  0  0  0  0  0  0
   17.7680   74.4662   -6.7032 C   0  0  1  0  0  0  0  0  0  0  0  0
   20.4912   74.6675   -5.7463 C   0  0  1  0  0  0  0  0  0  0  0  0
   18.9008   73.5232   -7.0983 C   0  0  1  0  0  0  0  0  0  0  0  0
   17.2549   76.6386   -4.3408 H   0  0  0  0  0  0  0  0  0  0  0  0
   19.1338   76.8768   -3.7759 H   0  0  0  0  0  0  0  0  0  0  0  0
   15.8319   74.3011   -6.3537 H   0  0  0  0  0  0  0  0  0  0  0  0
   17.6746   73.6701   -9.0924 O   0  0  0  0  0  0  0  0  0  0  0  0
   19.5785   72.4161   -9.1320 O   0  0  0  0  0  0  0  0  0  0  0  0
   18.7852   73.1276   -8.5344 C   0  0  0  0  0  0  0  0  0  0  0  0
  1  4  1  0
  1 24  1  0
  1  2  1  1
  1  3  2  0
 25 28  1  0
 25 24  1  0
 25 26  1  6
 25 27  2  0
  6 11  1  0
  6 12  1  0
 29 36  1  0
 29 37  1  0
  9  7  1  1
  7 13  1  0
 10  8  1  1
  8 14  1  0
  4  5  1  0
 36 28  1  1
 33 30  1  6
 30 38  1  0
 34 31  1  1
 31 39  1  0
 35 32  1  1
 32 40  1  0
 41 43  1  0
 15 19  2  0
 42 43  2  0
 16 22  2  0
 12 17  1  6
 17 19  1  0
 17 20  1  0
 18 19  1  0
 18 22  1  0
 18 23  1  0
  9 10  1  0
  9 11  1  0
 10 12  1  0
 11  5  1  6
 33 34  1  0
 33 35  1  0
 34 36  1  0
 35 37  1  0
 37 43  1  6
 20 21  2  0
 21 22  1  0
M  CHG  3   2  -1  26  -1  41  -1
M  END
>  <COMPND>  (97) 
    udp_gluA.pdb 

>  <AUTHOR>  (97) 
    GENERATED BY OPEN BABEL 3.1.1

>  <MASTER>  (97) 
        0    0    0    0    0    0    0    0   56    0   56    0

>  <minimizedAffinity>  (97) 
-7.30884

>  <CNNscore>  (97) 
0.4028194249

>  <CNNaffinity>  (97) 
3.9410927296

>  <CNN_VS>  (97) 
1.5875487328

>  <CNNaffinity_variance>  (97) 
0.8595705032

$$$$
98
     RDKit          3D

 43 45  0  0  0  0  0  0  0  0999 V2000
   19.2125   72.0215   -3.2610 P   0  0  2  0  0  0  0  0  0  0  0  0
   18.3717   72.7379   -2.0784 O   0  0  0  0  0  0  0  0  0  0  0  0
   19.9387   70.7727   -2.8551 O   0  0  0  0  0  0  0  0  0  0  0  0
   20.1362   73.2095   -3.8556 O   0  0  0  0  0  0  0  0  0  0  0  0
   20.7189   73.0373   -5.1344 C   0  0  0  0  0  0  0  0  0  0  0  0
   20.5558   74.0124   -7.3253 O   0  0  0  0  0  0  0  0  0  0  0  0
   19.4974   76.4599   -5.9539 O   0  0  0  0  0  0  0  0  0  0  0  0
   17.2292   75.2815   -6.9041 O   0  0  0  0  0  0  0  0  0  0  0  0
   19.2922   75.0840   -5.6324 C   0  0  1  0  0  0  0  0  0  0  0  0
   18.3364   74.4515   -6.6217 C   0  0  2  0  0  0  0  0  0  0  0  0
   20.5875   74.3366   -5.9185 C   0  0  1  0  0  0  0  0  0  0  0  0
   19.2303   74.2374   -7.8312 C   0  0  2  0  0  0  0  0  0  0  0  0
   18.6830   76.9580   -5.7793 H   0  0  0  0  0  0  0  0  0  0  0  0
   16.6914   75.3867   -6.1030 H   0  0  0  0  0  0  0  0  0  0  0  0
   17.0552   74.2293   -9.6327 O   0  0  0  0  0  0  0  0  0  0  0  0
   17.7875   69.8262  -10.7820 O   0  0  0  0  0  0  0  0  0  0  0  0
   18.8304   73.1025   -8.6141 N   0  0  0  0  0  0  0  0  0  0  0  0
   17.4214   72.0360  -10.2026 N   0  0  0  0  0  0  0  0  0  0  0  0
   17.7231   73.2035   -9.4891 C   0  0  0  0  0  0  0  0  0  0  0  0
   19.5325   71.9076   -8.5124 C   0  0  0  0  0  0  0  0  0  0  0  0
   19.2331   70.8033   -9.1991 C   0  0  0  0  0  0  0  0  0  0  0  0
   18.0896   70.8242  -10.1347 C   0  0  0  0  0  0  0  0  0  0  0  0
   16.6532   72.0813  -10.8167 H   0  0  0  0  0  0  0  0  0  0  0  0
   18.1036   71.8098   -4.4178 O   0  0  0  0  0  0  0  0  0  0  0  0
   17.7149   70.5049   -5.2895 P   0  0  2  0  0  0  0  0  0  0  0  0
   16.7732   69.6553   -4.2836 O   0  0  0  0  0  0  0  0  0  0  0  0
   18.8957   69.7452   -5.8209 O   0  0  0  0  0  0  0  0  0  0  0  0
   16.7075   71.0551   -6.4231 O   0  0  0  0  0  0  0  0  0  0  0  0
   14.6362   71.4803   -5.3564 O   0  0  0  0  0  0  0  0  0  0  0  0
   13.8331   72.6326   -9.2416 O   0  0  0  0  0  0  0  0  0  0  0  0
   15.3631   70.2027   -8.7039 O   0  0  0  0  0  0  0  0  0  0  0  0
   14.2740   74.6401   -7.1858 O   0  0  0  0  0  0  0  0  0  0  0  0
   14.6416   72.4340   -8.0819 C   0  0  2  0  0  0  0  0  0  0  0  0
   14.6588   70.9491   -7.7182 C   0  0  2  0  0  0  0  0  0  0  0  0
   14.0394   73.2549   -6.9394 C   0  0  1  0  0  0  0  0  0  0  0  0
   15.3209   70.7267   -6.3577 C   0  0  1  0  0  0  0  0  0  0  0  0
   14.6654   72.8853   -5.5977 C   0  0  1  0  0  0  0  0  0  0  0  0
   14.1966   72.1203   -9.9810 H   0  0  0  0  0  0  0  0  0  0  0  0
   14.9485   70.3394   -9.5698 H   0  0  0  0  0  0  0  0  0  0  0  0
   13.8807   74.8883   -8.0370 H   0  0  0  0  0  0  0  0  0  0  0  0
   12.6902   73.9527   -4.9189 O   0  0  0  0  0  0  0  0  0  0  0  0
   14.1997   73.4264   -3.2930 O   0  0  0  0  0  0  0  0  0  0  0  0
   13.8600   73.4369   -4.4667 C   0  0  0  0  0  0  0  0  0  0  0  0
  1  4  1  0
  1 24  1  0
  1  2  1  1
  1  3  2  0
 25 28  1  0
 25 24  1  0
 25 26  1  1
 25 27  2  0
  6 11  1  0
  6 12  1  0
 29 36  1  0
 29 37  1  0
  9  7  1  6
  7 13  1  0
 10  8  1  6
  8 14  1  0
  4  5  1  0
 36 28  1  6
 33 30  1  6
 30 38  1  0
 34 31  1  6
 31 39  1  0
 35 32  1  6
 32 40  1  0
 41 43  1  0
 15 19  2  0
 42 43  2  0
 16 22  2  0
 12 17  1  1
 17 19  1  0
 17 20  1  0
 18 19  1  0
 18 22  1  0
 18 23  1  0
  9 10  1  0
  9 11  1  0
 10 12  1  0
 11  5  1  1
 33 34  1  0
 33 35  1  0
 34 36  1  0
 35 37  1  0
 37 43  1  1
 20 21  2  0
 21 22  1  0
M  CHG  3   2  -1  26  -1  41  -1
M  END
>  <COMPND>  (98) 
    udp_gluA.pdb 

>  <AUTHOR>  (98) 
    GENERATED BY OPEN BABEL 3.1.1

>  <MASTER>  (98) 
        0    0    0    0    0    0    0    0   56    0   56    0

>  <minimizedAffinity>  (98) 
-6.37969

>  <CNNscore>  (98) 
0.3661253154

>  <CNNaffinity>  (98) 
3.7525925636

>  <CNN_VS>  (98) 
1.3739191294

>  <CNNaffinity_variance>  (98) 
0.6381477118

$$$$
99
     RDKit          3D

 43 45  0  0  0  0  0  0  0  0999 V2000
   20.8734   73.9009   -6.9352 P   0  0  2  0  0  0  0  0  0  0  0  0
   20.2522   75.1768   -7.7132 O   0  0  0  0  0  0  0  0  0  0  0  0
   22.2805   73.5482   -7.3192 O   0  0  0  0  0  0  0  0  0  0  0  0
   19.7718   72.7367   -7.1569 O   0  0  0  0  0  0  0  0  0  0  0  0
   18.9177   72.8196   -8.2829 C   0  0  0  0  0  0  0  0  0  0  0  0
   18.5803   70.5266   -7.6456 O   0  0  0  0  0  0  0  0  0  0  0  0
   17.3059   70.1608  -10.3351 O   0  0  0  0  0  0  0  0  0  0  0  0
   15.1504   70.3705   -8.6780 O   0  0  0  0  0  0  0  0  0  0  0  0
   17.2619   71.2882   -9.4601 C   0  0  1  0  0  0  0  0  0  0  0  0
   16.3497   71.0047   -8.2855 C   0  0  2  0  0  0  0  0  0  0  0  0
   18.6211   71.4124   -8.7853 C   0  0  1  0  0  0  0  0  0  0  0  0
   17.2229   70.1171   -7.4151 C   0  0  2  0  0  0  0  0  0  0  0  0
   16.4482   70.0611  -10.7779 H   0  0  0  0  0  0  0  0  0  0  0  0
   14.6300   70.9762   -9.2297 H   0  0  0  0  0  0  0  0  0  0  0  0
   16.4444   67.9869   -5.7320 O   0  0  0  0  0  0  0  0  0  0  0  0
   16.1017   70.7646   -2.0699 O   0  0  0  0  0  0  0  0  0  0  0  0
   16.9242   70.2555   -6.0178 N   0  0  0  0  0  0  0  0  0  0  0  0
   16.2735   69.3726   -3.9099 N   0  0  0  0  0  0  0  0  0  0  0  0
   16.5422   69.1220   -5.2620 C   0  0  0  0  0  0  0  0  0  0  0  0
   17.0124   71.5020   -5.4099 C   0  0  0  0  0  0  0  0  0  0  0  0
   16.7533   71.7252   -4.1200 C   0  0  0  0  0  0  0  0  0  0  0  0
   16.3468   70.5942   -3.2604 C   0  0  0  0  0  0  0  0  0  0  0  0
   16.0036   68.5991   -3.3638 H   0  0  0  0  0  0  0  0  0  0  0  0
   20.6784   74.2942   -5.3796 O   0  0  0  0  0  0  0  0  0  0  0  0
   21.3223   75.4862   -4.4973 P   0  0  2  0  0  0  0  0  0  0  0  0
   20.0743   76.4908   -4.2660 O   0  0  0  0  0  0  0  0  0  0  0  0
   22.5277   76.1302   -5.1188 O   0  0  0  0  0  0  0  0  0  0  0  0
   21.5876   74.8263   -3.0494 O   0  0  0  0  0  0  0  0  0  0  0  0
   23.5064   74.7108   -1.6659 O   0  0  0  0  0  0  0  0  0  0  0  0
   21.7626   71.0263   -0.9940 O   0  0  0  0  0  0  0  0  0  0  0  0
   21.8845   72.1368   -3.6933 O   0  0  0  0  0  0  0  0  0  0  0  0
   21.5575   73.1245    1.0076 O   0  0  0  0  0  0  0  0  0  0  0  0
   21.7853   72.4234   -1.2862 C   0  0  2  0  0  0  0  0  0  0  0  0
   22.5799   72.6650   -2.5699 C   0  0  2  0  0  0  0  0  0  0  0  0
   22.4461   73.1424   -0.1079 C   0  0  1  0  0  0  0  0  0  0  0  0
   22.8214   74.1588   -2.7909 C   0  0  1  0  0  0  0  0  0  0  0  0
   22.7691   74.5938   -0.4511 C   0  0  1  0  0  0  0  0  0  0  0  0
   21.3469   70.5487   -1.7291 H   0  0  0  0  0  0  0  0  0  0  0  0
   21.7276   71.1892   -3.5597 H   0  0  0  0  0  0  0  0  0  0  0  0
   21.3438   72.2063    1.2361 H   0  0  0  0  0  0  0  0  0  0  0  0
   24.7546   75.7746   -0.0453 O   0  0  0  0  0  0  0  0  0  0  0  0
   23.5269   75.1486    1.7713 O   0  0  0  0  0  0  0  0  0  0  0  0
   23.6950   75.1849    0.5616 C   0  0  0  0  0  0  0  0  0  0  0  0
  1  4  1  0
  1 24  1  0
  1  2  1  6
  1  3  2  0
 25 28  1  0
 25 24  1  0
 25 26  1  1
 25 27  2  0
  6 11  1  0
  6 12  1  0
 29 36  1  0
 29 37  1  0
  9  7  1  6
  7 13  1  0
 10  8  1  6
  8 14  1  0
  4  5  1  0
 36 28  1  1
 33 30  1  1
 30 38  1  0
 34 31  1  6
 31 39  1  0
 35 32  1  1
 32 40  1  0
 41 43  1  0
 15 19  2  0
 42 43  2  0
 16 22  2  0
 12 17  1  1
 17 19  1  0
 17 20  1  0
 18 19  1  0
 18 22  1  0
 18 23  1  0
  9 10  1  0
  9 11  1  0
 10 12  1  0
 11  5  1  1
 33 34  1  0
 33 35  1  0
 34 36  1  0
 35 37  1  0
 37 43  1  1
 20 21  2  0
 21 22  1  0
M  CHG  3   2  -1  26  -1  41  -1
M  END
>  <COMPND>  (99) 
    udp_gluA.pdb 

>  <AUTHOR>  (99) 
    GENERATED BY OPEN BABEL 3.1.1

>  <MASTER>  (99) 
        0    0    0    0    0    0    0    0   56    0   56    0

>  <minimizedAffinity>  (99) 
-7.40834

>  <CNNscore>  (99) 
0.3660464287

>  <CNNaffinity>  (99) 
4.2117776871

>  <CNN_VS>  (99) 
1.5417062044

>  <CNNaffinity_variance>  (99) 
0.2313064039

$$$$
100
     RDKit          3D

 43 45  0  0  0  0  0  0  0  0999 V2000
   15.9215   69.3184   -5.3755 P   0  0  2  0  0  0  0  0  0  0  0  0
   16.2496   67.8009   -4.9186 O   0  0  0  0  0  0  0  0  0  0  0  0
   14.4769   69.5912   -5.6762 O   0  0  0  0  0  0  0  0  0  0  0  0
   16.9555   69.5907   -6.5898 O   0  0  0  0  0  0  0  0  0  0  0  0
   16.4440   70.0770   -7.8172 C   0  0  0  0  0  0  0  0  0  0  0  0
   17.2859   71.3316   -9.6866 O   0  0  0  0  0  0  0  0  0  0  0  0
   19.9679   70.1665   -9.0224 O   0  0  0  0  0  0  0  0  0  0  0  0
   20.1289   72.6743   -7.9636 O   0  0  0  0  0  0  0  0  0  0  0  0
   18.9174   70.5740   -8.1455 C   0  0  1  0  0  0  0  0  0  0  0  0
   18.8503   72.0849   -8.0745 C   0  0  2  0  0  0  0  0  0  0  0  0
   17.5912   70.2270   -8.8080 C   0  0  1  0  0  0  0  0  0  0  0  0
   18.1580   72.4315   -9.3816 C   0  0  2  0  0  0  0  0  0  0  0  0
   20.8254   70.3781   -8.6205 H   0  0  0  0  0  0  0  0  0  0  0  0
   20.5279   72.4239   -7.1151 H   0  0  0  0  0  0  0  0  0  0  0  0
   16.6154   73.5023  -11.4912 O   0  0  0  0  0  0  0  0  0  0  0  0
   15.2063   77.0476   -8.9047 O   0  0  0  0  0  0  0  0  0  0  0  0
   17.3782   73.6332   -9.2867 N   0  0  0  0  0  0  0  0  0  0  0  0
   15.9159   75.2676  -10.2013 N   0  0  0  0  0  0  0  0  0  0  0  0
   16.6391   74.0851  -10.4055 C   0  0  0  0  0  0  0  0  0  0  0  0
   17.3495   74.3492   -8.0962 C   0  0  0  0  0  0  0  0  0  0  0  0
   16.6552   75.4746   -7.9166 C   0  0  0  0  0  0  0  0  0  0  0  0
   15.8567   76.0151   -9.0362 C   0  0  0  0  0  0  0  0  0  0  0  0
   15.3951   75.6030  -10.9665 H   0  0  0  0  0  0  0  0  0  0  0  0
   16.5366   70.2015   -4.1694 O   0  0  0  0  0  0  0  0  0  0  0  0
   16.7467   71.7977   -4.0229 P   0  0  2  0  0  0  0  0  0  0  0  0
   15.9055   72.1605   -2.6883 O   0  0  0  0  0  0  0  0  0  0  0  0
   16.3492   72.5853   -5.2376 O   0  0  0  0  0  0  0  0  0  0  0  0
   18.2912   71.9692   -3.5897 O   0  0  0  0  0  0  0  0  0  0  0  0
   20.2320   72.0708   -4.9433 O   0  0  0  0  0  0  0  0  0  0  0  0
   21.6930   70.2951   -1.5111 O   0  0  0  0  0  0  0  0  0  0  0  0
   19.1032   69.4986   -2.6033 O   0  0  0  0  0  0  0  0  0  0  0  0
   22.2613   73.0923   -2.0622 O   0  0  0  0  0  0  0  0  0  0  0  0
   20.8462   71.1539   -2.2749 C   0  0  2  0  0  0  0  0  0  0  0  0
   20.0461   70.3231   -3.2784 C   0  0  2  0  0  0  0  0  0  0  0  0
   21.7332   72.1634   -3.0071 C   0  0  1  0  0  0  0  0  0  0  0  0
   19.3028   71.2243   -4.2654 C   0  0  1  0  0  0  0  0  0  0  0  0
   20.9455   72.9351   -4.0618 C   0  0  1  0  0  0  0  0  0  0  0  0
   21.1511   69.6448   -1.0369 H   0  0  0  0  0  0  0  0  0  0  0  0
   19.5679   68.9243   -1.9751 H   0  0  0  0  0  0  0  0  0  0  0  0
   22.7649   72.6139   -1.3852 H   0  0  0  0  0  0  0  0  0  0  0  0
   23.1602   73.3725   -4.6984 O   0  0  0  0  0  0  0  0  0  0  0  0
   21.5133   74.4251   -5.8726 O   0  0  0  0  0  0  0  0  0  0  0  0
   21.8673   73.6666   -4.9824 C   0  0  0  0  0  0  0  0  0  0  0  0
  1  4  1  0
  1 24  1  0
  1  2  1  1
  1  3  2  0
 25 28  1  0
 25 24  1  0
 25 26  1  1
 25 27  2  0
  6 11  1  0
  6 12  1  0
 29 36  1  0
 29 37  1  0
  9  7  1  6
  7 13  1  0
 10  8  1  6
  8 14  1  0
  4  5  1  0
 36 28  1  1
 33 30  1  6
 30 38  1  0
 34 31  1  1
 31 39  1  0
 35 32  1  1
 32 40  1  0
 41 43  1  0
 15 19  2  0
 42 43  2  0
 16 22  2  0
 12 17  1  1
 17 19  1  0
 17 20  1  0
 18 19  1  0
 18 22  1  0
 18 23  1  0
  9 10  1  0
  9 11  1  0
 10 12  1  0
 11  5  1  1
 33 34  1  0
 33 35  1  0
 34 36  1  0
 35 37  1  0
 37 43  1  6
 20 21  2  0
 21 22  1  0
M  CHG  3   2  -1  26  -1  41  -1
M  END
>  <COMPND>  (100) 
    udp_gluA.pdb 

>  <AUTHOR>  (100) 
    GENERATED BY OPEN BABEL 3.1.1

>  <MASTER>  (100) 
        0    0    0    0    0    0    0    0   56    0   56    0

>  <minimizedAffinity>  (100) 
-7.15228

>  <CNNscore>  (100) 
0.3541350961

>  <CNNaffinity>  (100) 
4.0876574516

>  <CNN_VS>  (100) 
1.4475829601

>  <CNNaffinity_variance>  (100) 
0.1388639063

$$$$
101
     RDKit          3D

 43 45  0  0  0  0  0  0  0  0999 V2000
   19.3935   71.2465   -3.0171 P   0  0  2  0  0  0  0  0  0  0  0  0
   18.6843   72.5988   -2.4811 O   0  0  0  0  0  0  0  0  0  0  0  0
   19.7289   71.2440   -4.4798 O   0  0  0  0  0  0  0  0  0  0  0  0
   18.4042   70.0661   -2.5211 O   0  0  0  0  0  0  0  0  0  0  0  0
   17.5462   69.4597   -3.4701 C   0  0  0  0  0  0  0  0  0  0  0  0
   16.4357   71.1054   -4.8251 O   0  0  0  0  0  0  0  0  0  0  0  0
   13.9177   70.3013   -3.4093 O   0  0  0  0  0  0  0  0  0  0  0  0
   13.7069   68.9897   -5.7907 O   0  0  0  0  0  0  0  0  0  0  0  0
   15.0253   69.4949   -3.8111 C   0  0  1  0  0  0  0  0  0  0  0  0
   15.0023   69.2822   -5.3099 C   0  0  2  0  0  0  0  0  0  0  0  0
   16.2949   70.3145   -3.6251 C   0  0  1  0  0  0  0  0  0  0  0  0
   15.5313   70.6099   -5.8251 C   0  0  2  0  0  0  0  0  0  0  0  0
   13.0948   69.7988   -3.5192 H   0  0  0  0  0  0  0  0  0  0  0  0
   13.4153   68.1352   -5.4348 H   0  0  0  0  0  0  0  0  0  0  0  0
   14.2966   70.5566   -8.3646 O   0  0  0  0  0  0  0  0  0  0  0  0
   18.3412   70.0820  -10.5233 O   0  0  0  0  0  0  0  0  0  0  0  0
   16.2378   70.4734   -7.0673 N   0  0  0  0  0  0  0  0  0  0  0  0
   16.3122   70.3192   -9.4373 N   0  0  0  0  0  0  0  0  0  0  0  0
   15.5227   70.4578   -8.2881 C   0  0  0  0  0  0  0  0  0  0  0  0
   17.6227   70.3585   -7.0685 C   0  0  0  0  0  0  0  0  0  0  0  0
   18.3614   70.2271   -8.1720 C   0  0  0  0  0  0  0  0  0  0  0  0
   17.6916   70.2010   -9.4888 C   0  0  0  0  0  0  0  0  0  0  0  0
   15.8365   70.3037  -10.2991 H   0  0  0  0  0  0  0  0  0  0  0  0
   20.6670   71.0904   -2.0340 O   0  0  0  0  0  0  0  0  0  0  0  0
   21.7721   72.1664   -1.5495 P   0  0  2  0  0  0  0  0  0  0  0  0
   23.1719   71.3844   -1.7713 O   0  0  0  0  0  0  0  0  0  0  0  0
   21.5636   72.6771   -0.1532 O   0  0  0  0  0  0  0  0  0  0  0  0
   21.7586   73.3083   -2.6889 O   0  0  0  0  0  0  0  0  0  0  0  0
   22.4886   73.1136   -4.9336 O   0  0  0  0  0  0  0  0  0  0  0  0
   23.1158   77.1289   -4.1909 O   0  0  0  0  0  0  0  0  0  0  0  0
   23.8009   75.1259   -2.1776 O   0  0  0  0  0  0  0  0  0  0  0  0
   20.8514   76.2797   -5.8040 O   0  0  0  0  0  0  0  0  0  0  0  0
   22.4627   75.8661   -4.0611 C   0  0  2  0  0  0  0  0  0  0  0  0
   23.4521   74.8310   -3.5252 C   0  0  2  0  0  0  0  0  0  0  0  0
   21.9557   75.4517   -5.4442 C   0  0  1  0  0  0  0  0  0  0  0  0
   22.8589   73.4228   -3.5894 C   0  0  1  0  0  0  0  0  0  0  0  0
   21.4982   73.9960   -5.4567 C   0  0  1  0  0  0  0  0  0  0  0  0
   23.4466   77.4127   -3.3240 H   0  0  0  0  0  0  0  0  0  0  0  0
   24.1776   76.0181   -2.1295 H   0  0  0  0  0  0  0  0  0  0  0  0
   21.1293   77.2090   -5.7997 H   0  0  0  0  0  0  0  0  0  0  0  0
   22.4896   73.5765   -7.5406 O   0  0  0  0  0  0  0  0  0  0  0  0
   20.2700   73.0991   -7.3298 O   0  0  0  0  0  0  0  0  0  0  0  0
   21.3202   73.5078   -6.8575 C   0  0  0  0  0  0  0  0  0  0  0  0
  1  4  1  0
  1 24  1  0
  1  2  1  1
  1  3  2  0
 25 28  1  0
 25 24  1  0
 25 26  1  1
 25 27  2  0
  6 11  1  0
  6 12  1  0
 29 36  1  0
 29 37  1  0
  9  7  1  6
  7 13  1  0
 10  8  1  6
  8 14  1  0
  4  5  1  0
 36 28  1  1
 33 30  1  6
 30 38  1  0
 34 31  1  1
 31 39  1  0
 35 32  1  1
 32 40  1  0
 41 43  1  0
 15 19  2  0
 42 43  2  0
 16 22  2  0
 12 17  1  6
 17 19  1  0
 17 20  1  0
 18 19  1  0
 18 22  1  0
 18 23  1  0
  9 10  1  0
  9 11  1  0
 10 12  1  0
 11  5  1  6
 33 34  1  0
 33 35  1  0
 34 36  1  0
 35 37  1  0
 37 43  1  6
 20 21  2  0
 21 22  1  0
M  CHG  3   2  -1  26  -1  41  -1
M  END
>  <COMPND>  (101) 
    udp_gluA.pdb 

>  <AUTHOR>  (101) 
    GENERATED BY OPEN BABEL 3.1.1

>  <MASTER>  (101) 
        0    0    0    0    0    0    0    0   56    0   56    0

>  <minimizedAffinity>  (101) 
-7.71786

>  <CNNscore>  (101) 
0.8273066282

>  <CNNaffinity>  (101) 
4.6856026649

>  <CNN_VS>  (101) 
3.8764300346

>  <CNNaffinity_variance>  (101) 
0.1581095904

$$$$
102
     RDKit          3D

 43 45  0  0  0  0  0  0  0  0999 V2000
   20.2629   73.3861   -6.4631 P   0  0  2  0  0  0  0  0  0  0  0  0
   20.1478   74.5079   -7.6238 O   0  0  0  0  0  0  0  0  0  0  0  0
   21.6383   73.2051   -5.8911 O   0  0  0  0  0  0  0  0  0  0  0  0
   19.5999   72.0688   -7.1288 O   0  0  0  0  0  0  0  0  0  0  0  0
   18.9470   72.1985   -8.3784 C   0  0  0  0  0  0  0  0  0  0  0  0
   18.2268   70.0308   -7.6299 O   0  0  0  0  0  0  0  0  0  0  0  0
   16.9573   69.7260  -10.3294 O   0  0  0  0  0  0  0  0  0  0  0  0
   14.8366   70.3771   -8.7436 O   0  0  0  0  0  0  0  0  0  0  0  0
   17.0834   70.8931   -9.5167 C   0  0  1  0  0  0  0  0  0  0  0  0
   16.1165   70.8287   -8.3534 C   0  0  2  0  0  0  0  0  0  0  0  0
   18.4325   70.8323   -8.8134 C   0  0  1  0  0  0  0  0  0  0  0  0
   16.8168   69.8613   -7.4144 C   0  0  2  0  0  0  0  0  0  0  0  0
   16.1028   69.7423  -10.7889 H   0  0  0  0  0  0  0  0  0  0  0  0
   14.4323   71.0272   -9.3402 H   0  0  0  0  0  0  0  0  0  0  0  0
   16.3431   67.8640   -5.4746 O   0  0  0  0  0  0  0  0  0  0  0  0
   15.6885   70.9899   -2.1512 O   0  0  0  0  0  0  0  0  0  0  0  0
   16.5203   70.1253   -6.0348 N   0  0  0  0  0  0  0  0  0  0  0  0
   16.0165   69.4228   -3.8214 N   0  0  0  0  0  0  0  0  0  0  0  0
   16.2984   69.0500   -5.1423 C   0  0  0  0  0  0  0  0  0  0  0  0
   16.4535   71.4360   -5.5782 C   0  0  0  0  0  0  0  0  0  0  0  0
   16.1838   71.7757   -4.3162 C   0  0  0  0  0  0  0  0  0  0  0  0
   15.9386   70.7121   -3.3202 C   0  0  0  0  0  0  0  0  0  0  0  0
   15.8564   68.6915   -3.1820 H   0  0  0  0  0  0  0  0  0  0  0  0
   19.1451   73.8545   -5.3936 O   0  0  0  0  0  0  0  0  0  0  0  0
   19.1813   75.0000   -4.2533 P   0  0  2  0  0  0  0  0  0  0  0  0
   17.6848   74.9564   -3.6376 O   0  0  0  0  0  0  0  0  0  0  0  0
   19.6060   76.3512   -4.7511 O   0  0  0  0  0  0  0  0  0  0  0  0
   20.1181   74.3901   -3.0901 O   0  0  0  0  0  0  0  0  0  0  0  0
   19.1130   72.3346   -2.4786 O   0  0  0  0  0  0  0  0  0  0  0  0
   22.5100   72.3419   -0.1273 O   0  0  0  0  0  0  0  0  0  0  0  0
   20.9339   74.7790   -0.4597 O   0  0  0  0  0  0  0  0  0  0  0  0
   22.3791   70.6630   -2.4969 O   0  0  0  0  0  0  0  0  0  0  0  0
   21.7233   72.6371   -1.2814 C   0  0  2  0  0  0  0  0  0  0  0  0
   20.5167   73.4837   -0.8753 C   0  0  2  0  0  0  0  0  0  0  0  0
   21.2624   71.3115   -1.8913 C   0  0  1  0  0  0  0  0  0  0  0  0
   19.5326   73.6264   -2.0372 C   0  0  1  0  0  0  0  0  0  0  0  0
   20.1900   71.5305   -2.9546 C   0  0  1  0  0  0  0  0  0  0  0  0
   22.8142   73.1695    0.2773 H   0  0  0  0  0  0  0  0  0  0  0  0
   21.5588   74.6960    0.2772 H   0  0  0  0  0  0  0  0  0  0  0  0
   23.0691   70.5178   -1.8308 H   0  0  0  0  0  0  0  0  0  0  0  0
   19.6016   70.0047   -4.6360 O   0  0  0  0  0  0  0  0  0  0  0  0
   18.9690   69.4987   -2.5046 O   0  0  0  0  0  0  0  0  0  0  0  0
   19.5181   70.2424   -3.3036 C   0  0  0  0  0  0  0  0  0  0  0  0
  1  4  1  0
  1 24  1  0
  1  2  1  6
  1  3  2  0
 25 28  1  0
 25 24  1  0
 25 26  1  1
 25 27  2  0
  6 11  1  0
  6 12  1  0
 29 36  1  0
 29 37  1  0
  9  7  1  6
  7 13  1  0
 10  8  1  6
  8 14  1  0
  4  5  1  0
 36 28  1  6
 33 30  1  1
 30 38  1  0
 34 31  1  6
 31 39  1  0
 35 32  1  6
 32 40  1  0
 41 43  1  0
 15 19  2  0
 42 43  2  0
 16 22  2  0
 12 17  1  1
 17 19  1  0
 17 20  1  0
 18 19  1  0
 18 22  1  0
 18 23  1  0
  9 10  1  0
  9 11  1  0
 10 12  1  0
 11  5  1  1
 33 34  1  0
 33 35  1  0
 34 36  1  0
 35 37  1  0
 37 43  1  1
 20 21  2  0
 21 22  1  0
M  CHG  3   2  -1  26  -1  41  -1
M  END
>  <COMPND>  (102) 
    udp_gluA.pdb 

>  <AUTHOR>  (102) 
    GENERATED BY OPEN BABEL 3.1.1

>  <MASTER>  (102) 
        0    0    0    0    0    0    0    0   56    0   56    0

>  <minimizedAffinity>  (102) 
-7.30858

>  <CNNscore>  (102) 
0.6487397552

>  <CNNaffinity>  (102) 
4.3423848152

>  <CNN_VS>  (102) 
2.8170776367

>  <CNNaffinity_variance>  (102) 
0.5801302195

$$$$
103
     RDKit          3D

 43 45  0  0  0  0  0  0  0  0999 V2000
   19.4906   75.4362   -6.6933 P   0  0  2  0  0  0  0  0  0  0  0  0
   18.2602   76.0725   -5.8565 O   0  0  0  0  0  0  0  0  0  0  0  0
   19.9250   76.2350   -7.8871 O   0  0  0  0  0  0  0  0  0  0  0  0
   19.0108   73.9214   -6.9982 O   0  0  0  0  0  0  0  0  0  0  0  0
   18.0183   73.7124   -7.9860 C   0  0  0  0  0  0  0  0  0  0  0  0
   18.2867   71.3936   -7.4127 O   0  0  0  0  0  0  0  0  0  0  0  0
   17.3290   70.7884  -10.1890 O   0  0  0  0  0  0  0  0  0  0  0  0
   15.1020   70.3419   -8.6799 O   0  0  0  0  0  0  0  0  0  0  0  0
   16.9230   71.8291   -9.2998 C   0  0  1  0  0  0  0  0  0  0  0  0
   16.0541   71.2656   -8.1954 C   0  0  2  0  0  0  0  0  0  0  0  0
   18.1517   72.2964   -8.5315 C   0  0  1  0  0  0  0  0  0  0  0  0
   17.0831   70.6205   -7.2827 C   0  0  2  0  0  0  0  0  0  0  0  0
   16.5606   70.4735  -10.6910 H   0  0  0  0  0  0  0  0  0  0  0  0
   14.4697   70.8011   -9.2553 H   0  0  0  0  0  0  0  0  0  0  0  0
   16.3524   68.3095   -5.8329 O   0  0  0  0  0  0  0  0  0  0  0  0
   15.5268   70.7471   -2.0092 O   0  0  0  0  0  0  0  0  0  0  0  0
   16.6731   70.6225   -5.9069 N   0  0  0  0  0  0  0  0  0  0  0  0
   15.9409   69.5259   -3.9302 N   0  0  0  0  0  0  0  0  0  0  0  0
   16.3266   69.4065   -5.2719 C   0  0  0  0  0  0  0  0  0  0  0  0
   16.6190   71.8183   -5.2011 C   0  0  0  0  0  0  0  0  0  0  0  0
   16.2496   71.9162   -3.9226 C   0  0  0  0  0  0  0  0  0  0  0  0
   15.8709   70.6925   -3.1860 C   0  0  0  0  0  0  0  0  0  0  0  0
   15.6931   68.6929   -3.4674 H   0  0  0  0  0  0  0  0  0  0  0  0
   20.6313   75.2361   -5.5657 O   0  0  0  0  0  0  0  0  0  0  0  0
   22.0016   74.3784   -5.5826 P   0  0  2  0  0  0  0  0  0  0  0  0
   23.1351   75.4855   -5.2513 O   0  0  0  0  0  0  0  0  0  0  0  0
   22.2351   73.6158   -6.8546 O   0  0  0  0  0  0  0  0  0  0  0  0
   21.9274   73.4622   -4.2568 O   0  0  0  0  0  0  0  0  0  0  0  0
   19.9678   72.3203   -3.5748 O   0  0  0  0  0  0  0  0  0  0  0  0
   22.0654   72.5844   -0.0254 O   0  0  0  0  0  0  0  0  0  0  0  0
   21.9546   74.8609   -1.8529 O   0  0  0  0  0  0  0  0  0  0  0  0
   21.9455   70.0618   -1.4653 O   0  0  0  0  0  0  0  0  0  0  0  0
   21.9059   72.4707   -1.4394 C   0  0  2  0  0  0  0  0  0  0  0  0
   21.1527   73.6912   -1.9692 C   0  0  2  0  0  0  0  0  0  0  0  0
   21.1150   71.1920   -1.7249 C   0  0  1  0  0  0  0  0  0  0  0  0
   20.7619   73.4990   -3.4352 C   0  0  1  0  0  0  0  0  0  0  0  0
   20.6539   71.1349   -3.1784 C   0  0  1  0  0  0  0  0  0  0  0  0
   22.5653   73.3901    0.1801 H   0  0  0  0  0  0  0  0  0  0  0  0
   22.2064   74.9888   -0.9252 H   0  0  0  0  0  0  0  0  0  0  0  0
   22.2459   70.0863   -0.5433 H   0  0  0  0  0  0  0  0  0  0  0  0
   19.5064   69.7420   -4.6765 O   0  0  0  0  0  0  0  0  0  0  0  0
   18.9688   69.5611   -2.4680 O   0  0  0  0  0  0  0  0  0  0  0  0
   19.6217   70.0712   -3.3661 C   0  0  0  0  0  0  0  0  0  0  0  0
  1  4  1  0
  1 24  1  0
  1  2  1  1
  1  3  2  0
 25 28  1  0
 25 24  1  0
 25 26  1  1
 25 27  2  0
  6 11  1  0
  6 12  1  0
 29 36  1  0
 29 37  1  0
  9  7  1  6
  7 13  1  0
 10  8  1  6
  8 14  1  0
  4  5  1  0
 36 28  1  6
 33 30  1  1
 30 38  1  0
 34 31  1  6
 31 39  1  0
 35 32  1  6
 32 40  1  0
 41 43  1  0
 15 19  2  0
 42 43  2  0
 16 22  2  0
 12 17  1  1
 17 19  1  0
 17 20  1  0
 18 19  1  0
 18 22  1  0
 18 23  1  0
  9 10  1  0
  9 11  1  0
 10 12  1  0
 11  5  1  1
 33 34  1  0
 33 35  1  0
 34 36  1  0
 35 37  1  0
 37 43  1  1
 20 21  2  0
 21 22  1  0
M  CHG  3   2  -1  26  -1  41  -1
M  END
>  <COMPND>  (103) 
    udp_gluA.pdb 

>  <AUTHOR>  (103) 
    GENERATED BY OPEN BABEL 3.1.1

>  <MASTER>  (103) 
        0    0    0    0    0    0    0    0   56    0   56    0

>  <minimizedAffinity>  (103) 
-7.62836

>  <CNNscore>  (103) 
0.6481930017

>  <CNNaffinity>  (103) 
4.4494314194

>  <CNN_VS>  (103) 
2.8840904236

>  <CNNaffinity_variance>  (103) 
0.5642671585

$$$$
104
     RDKit          3D

 43 45  0  0  0  0  0  0  0  0999 V2000
   19.3077   73.6831   -7.5767 P   0  0  2  0  0  0  0  0  0  0  0  0
   18.0946   73.2137   -6.6140 O   0  0  0  0  0  0  0  0  0  0  0  0
   19.2878   75.1339   -7.9595 O   0  0  0  0  0  0  0  0  0  0  0  0
   19.2579   72.6315   -8.8053 O   0  0  0  0  0  0  0  0  0  0  0  0
   19.9963   71.4284   -8.6960 C   0  0  0  0  0  0  0  0  0  0  0  0
   18.9036   69.3503   -8.1811 O   0  0  0  0  0  0  0  0  0  0  0  0
   17.3470   69.7561  -10.7117 O   0  0  0  0  0  0  0  0  0  0  0  0
   15.5757   70.5364   -8.7909 O   0  0  0  0  0  0  0  0  0  0  0  0
   17.7968   70.7232   -9.7625 C   0  0  1  0  0  0  0  0  0  0  0  0
   16.9539   70.6564   -8.5066 C   0  0  2  0  0  0  0  0  0  0  0  0
   19.1623   70.2821   -9.2535 C   0  0  1  0  0  0  0  0  0  0  0  0
   17.5171   69.4273   -7.8137 C   0  0  2  0  0  0  0  0  0  0  0  0
   16.4760   70.0164  -11.0511 H   0  0  0  0  0  0  0  0  0  0  0  0
   15.2650   71.3436   -9.2311 H   0  0  0  0  0  0  0  0  0  0  0  0
   15.1344   69.0115   -6.3555 O   0  0  0  0  0  0  0  0  0  0  0  0
   17.2494   69.7701   -2.3312 O   0  0  0  0  0  0  0  0  0  0  0  0
   17.4168   69.5100   -6.3840 N   0  0  0  0  0  0  0  0  0  0  0  0
   16.1899   69.3907   -4.3526 N   0  0  0  0  0  0  0  0  0  0  0  0
   16.1725   69.2837   -5.7495 C   0  0  0  0  0  0  0  0  0  0  0  0
   18.5420   69.8104   -5.6260 C   0  0  0  0  0  0  0  0  0  0  0  0
   18.5430   69.9088   -4.2952 C   0  0  0  0  0  0  0  0  0  0  0  0
   17.2833   69.6877   -3.5552 C   0  0  0  0  0  0  0  0  0  0  0  0
   15.3348   69.2394   -3.8887 H   0  0  0  0  0  0  0  0  0  0  0  0
   20.6216   73.2213   -6.7562 O   0  0  0  0  0  0  0  0  0  0  0  0
   21.5283   74.0087   -5.6738 P   0  0  2  0  0  0  0  0  0  0  0  0
   21.7189   75.4698   -6.3441 O   0  0  0  0  0  0  0  0  0  0  0  0
   22.8138   73.3153   -5.3264 O   0  0  0  0  0  0  0  0  0  0  0  0
   20.5438   74.2607   -4.4210 O   0  0  0  0  0  0  0  0  0  0  0  0
   20.7011   72.3655   -3.0095 O   0  0  0  0  0  0  0  0  0  0  0  0
   18.0111   74.7281   -0.9479 O   0  0  0  0  0  0  0  0  0  0  0  0
   17.8290   74.4650   -3.8517 O   0  0  0  0  0  0  0  0  0  0  0  0
   20.7623   74.5114   -0.0341 O   0  0  0  0  0  0  0  0  0  0  0  0
   19.1246   74.4610   -1.8005 C   0  0  2  0  0  0  0  0  0  0  0  0
   18.6571   73.6628   -3.0178 C   0  0  2  0  0  0  0  0  0  0  0  0
   20.1515   73.6574   -0.9995 C   0  0  1  0  0  0  0  0  0  0  0  0
   19.8493   73.1616   -3.8341 C   0  0  1  0  0  0  0  0  0  0  0  0
   21.2401   73.0864   -1.9036 C   0  0  1  0  0  0  0  0  0  0  0  0
   17.3452   75.2379   -1.4356 H   0  0  0  0  0  0  0  0  0  0  0  0
   17.0706   74.7866   -3.3401 H   0  0  0  0  0  0  0  0  0  0  0  0
   20.0801   74.8816    0.5477 H   0  0  0  0  0  0  0  0  0  0  0  0
   23.0310   72.6239   -0.4613 O   0  0  0  0  0  0  0  0  0  0  0  0
   21.8289   70.8455   -1.2304 O   0  0  0  0  0  0  0  0  0  0  0  0
   22.0376   72.0485   -1.1832 C   0  0  0  0  0  0  0  0  0  0  0  0
  1  4  1  0
  1 24  1  0
  1  2  1  1
  1  3  2  0
 25 28  1  0
 25 24  1  0
 25 26  1  6
 25 27  2  0
  6 11  1  0
  6 12  1  0
 29 36  1  0
 29 37  1  0
  9  7  1  6
  7 13  1  0
 10  8  1  6
  8 14  1  0
  4  5  1  0
 36 28  1  1
 33 30  1  1
 30 38  1  0
 34 31  1  6
 31 39  1  0
 35 32  1  1
 32 40  1  0
 41 43  1  0
 15 19  2  0
 42 43  2  0
 16 22  2  0
 12 17  1  1
 17 19  1  0
 17 20  1  0
 18 19  1  0
 18 22  1  0
 18 23  1  0
  9 10  1  0
  9 11  1  0
 10 12  1  0
 11  5  1  1
 33 34  1  0
 33 35  1  0
 34 36  1  0
 35 37  1  0
 37 43  1  1
 20 21  2  0
 21 22  1  0
M  CHG  3   2  -1  26  -1  41  -1
M  END
>  <COMPND>  (104) 
    udp_gluA.pdb 

>  <AUTHOR>  (104) 
    GENERATED BY OPEN BABEL 3.1.1

>  <MASTER>  (104) 
        0    0    0    0    0    0    0    0   56    0   56    0

>  <minimizedAffinity>  (104) 
-8.14524

>  <CNNscore>  (104) 
0.5828794837

>  <CNNaffinity>  (104) 
4.3454141617

>  <CNN_VS>  (104) 
2.5328526497

>  <CNNaffinity_variance>  (104) 
0.6195153594

$$$$
105
     RDKit          3D

 43 45  0  0  0  0  0  0  0  0999 V2000
   21.1035   73.8184   -6.6390 P   0  0  2  0  0  0  0  0  0  0  0  0
   20.8987   74.9753   -7.7520 O   0  0  0  0  0  0  0  0  0  0  0  0
   22.5320   73.5264   -6.2841 O   0  0  0  0  0  0  0  0  0  0  0  0
   20.2535   72.5687   -7.2167 O   0  0  0  0  0  0  0  0  0  0  0  0
   19.3893   72.7894   -8.3163 C   0  0  0  0  0  0  0  0  0  0  0  0
   19.1712   70.4205   -7.9720 O   0  0  0  0  0  0  0  0  0  0  0  0
   17.6401   70.3749  -10.5498 O   0  0  0  0  0  0  0  0  0  0  0  0
   15.6590   70.2795   -8.6784 O   0  0  0  0  0  0  0  0  0  0  0  0
   17.6588   71.3714   -9.5274 C   0  0  1  0  0  0  0  0  0  0  0  0
   16.8769   70.8985   -8.3203 C   0  0  2  0  0  0  0  0  0  0  0  0
   19.0760   71.4531   -8.9770 C   0  0  1  0  0  0  0  0  0  0  0  0
   17.8539   69.9340   -7.6697 C   0  0  2  0  0  0  0  0  0  0  0  0
   16.7445   70.3045  -10.9168 H   0  0  0  0  0  0  0  0  0  0  0  0
   15.0716   70.9346   -9.0880 H   0  0  0  0  0  0  0  0  0  0  0  0
   15.8054   68.5017   -6.3549 O   0  0  0  0  0  0  0  0  0  0  0  0
   17.3412   69.7640   -2.1965 O   0  0  0  0  0  0  0  0  0  0  0  0
   17.6950   69.8713   -6.2443 N   0  0  0  0  0  0  0  0  0  0  0  0
   16.5717   69.1326   -4.2851 N   0  0  0  0  0  0  0  0  0  0  0  0
   16.6319   69.1237   -5.6848 C   0  0  0  0  0  0  0  0  0  0  0  0
   18.5863   70.5435   -5.4169 C   0  0  0  0  0  0  0  0  0  0  0  0
   18.5161   70.5425   -4.0842 C   0  0  0  0  0  0  0  0  0  0  0  0
   17.4343   69.7862   -3.4201 C   0  0  0  0  0  0  0  0  0  0  0  0
   15.8388   68.6207   -3.8725 H   0  0  0  0  0  0  0  0  0  0  0  0
   20.1957   74.3364   -5.4059 O   0  0  0  0  0  0  0  0  0  0  0  0
   20.4535   75.4999   -4.3135 P   0  0  2  0  0  0  0  0  0  0  0  0
   18.9611   76.0296   -3.9781 O   0  0  0  0  0  0  0  0  0  0  0  0
   21.4025   76.5712   -4.7671 O   0  0  0  0  0  0  0  0  0  0  0  0
   20.9161   74.7157   -2.9818 O   0  0  0  0  0  0  0  0  0  0  0  0
   22.9790   74.8979   -1.8327 O   0  0  0  0  0  0  0  0  0  0  0  0
   21.8776   71.0104   -0.9715 O   0  0  0  0  0  0  0  0  0  0  0  0
   21.5227   72.0883   -3.6634 O   0  0  0  0  0  0  0  0  0  0  0  0
   21.6046   73.0854    1.0461 O   0  0  0  0  0  0  0  0  0  0  0  0
   21.6635   72.3919   -1.2605 C   0  0  2  0  0  0  0  0  0  0  0  0
   22.2601   72.7272   -2.6277 C   0  0  2  0  0  0  0  0  0  0  0  0
   22.3456   73.2153   -0.1657 C   0  0  1  0  0  0  0  0  0  0  0  0
   22.2553   74.2370   -2.8713 C   0  0  1  0  0  0  0  0  0  0  0  0
   22.4127   74.6931   -0.5403 C   0  0  1  0  0  0  0  0  0  0  0  0
   21.4529   70.4674   -1.6542 H   0  0  0  0  0  0  0  0  0  0  0  0
   21.5214   71.1300   -3.5150 H   0  0  0  0  0  0  0  0  0  0  0  0
   21.5543   72.1494    1.2956 H   0  0  0  0  0  0  0  0  0  0  0  0
   24.4896   75.7574   -0.3051 O   0  0  0  0  0  0  0  0  0  0  0  0
   23.1387   75.6957    1.5307 O   0  0  0  0  0  0  0  0  0  0  0  0
   23.3545   75.4259    0.3587 C   0  0  0  0  0  0  0  0  0  0  0  0
  1  4  1  0
  1 24  1  0
  1  2  1  6
  1  3  2  0
 25 28  1  0
 25 24  1  0
 25 26  1  1
 25 27  2  0
  6 11  1  0
  6 12  1  0
 29 36  1  0
 29 37  1  0
  9  7  1  6
  7 13  1  0
 10  8  1  6
  8 14  1  0
  4  5  1  0
 36 28  1  1
 33 30  1  1
 30 38  1  0
 34 31  1  6
 31 39  1  0
 35 32  1  1
 32 40  1  0
 41 43  1  0
 15 19  2  0
 42 43  2  0
 16 22  2  0
 12 17  1  1
 17 19  1  0
 17 20  1  0
 18 19  1  0
 18 22  1  0
 18 23  1  0
  9 10  1  0
  9 11  1  0
 10 12  1  0
 11  5  1  1
 33 34  1  0
 33 35  1  0
 34 36  1  0
 35 37  1  0
 37 43  1  1
 20 21  2  0
 21 22  1  0
M  CHG  3   2  -1  26  -1  41  -1
M  END
>  <COMPND>  (105) 
    udp_gluA.pdb 

>  <AUTHOR>  (105) 
    GENERATED BY OPEN BABEL 3.1.1

>  <MASTER>  (105) 
        0    0    0    0    0    0    0    0   56    0   56    0

>  <minimizedAffinity>  (105) 
-7.38352

>  <CNNscore>  (105) 
0.5773722529

>  <CNNaffinity>  (105) 
4.4215645790

>  <CNN_VS>  (105) 
2.5528886318

>  <CNNaffinity_variance>  (105) 
0.3060855567

$$$$
106
     RDKit          3D

 43 45  0  0  0  0  0  0  0  0999 V2000
   20.4557   73.0611   -7.3870 P   0  0  2  0  0  0  0  0  0  0  0  0
   19.5590   74.4075   -7.4333 O   0  0  0  0  0  0  0  0  0  0  0  0
   21.8908   73.2686   -7.0007 O   0  0  0  0  0  0  0  0  0  0  0  0
   20.2089   72.3801   -8.8338 O   0  0  0  0  0  0  0  0  0  0  0  0
   19.4939   71.1596   -8.8935 C   0  0  0  0  0  0  0  0  0  0  0  0
   17.2568   70.4330   -9.3887 O   0  0  0  0  0  0  0  0  0  0  0  0
   17.0019   72.9395  -11.0148 O   0  0  0  0  0  0  0  0  0  0  0  0
   15.6981   73.5895   -8.7097 O   0  0  0  0  0  0  0  0  0  0  0  0
   17.6992   72.7256   -9.7874 C   0  0  1  0  0  0  0  0  0  0  0  0
   16.7181   72.6152   -8.6396 C   0  0  2  0  0  0  0  0  0  0  0  0
   18.3019   71.3280   -9.8269 C   0  0  1  0  0  0  0  0  0  0  0  0
   16.1893   71.2015   -8.8116 C   0  0  2  0  0  0  0  0  0  0  0  0
   16.6080   73.8263  -11.0130 H   0  0  0  0  0  0  0  0  0  0  0  0
   16.0854   74.4719   -8.5943 H   0  0  0  0  0  0  0  0  0  0  0  0
   13.7410   71.6954   -7.4930 O   0  0  0  0  0  0  0  0  0  0  0  0
   14.8241   68.8548   -4.0286 O   0  0  0  0  0  0  0  0  0  0  0  0
   15.8057   70.6043   -7.5637 N   0  0  0  0  0  0  0  0  0  0  0  0
   14.2832   70.2809   -5.7683 N   0  0  0  0  0  0  0  0  0  0  0  0
   14.5533   70.9197   -6.9857 C   0  0  0  0  0  0  0  0  0  0  0  0
   16.6643   69.7165   -6.9268 C   0  0  0  0  0  0  0  0  0  0  0  0
   16.3928   69.1154   -5.7667 C   0  0  0  0  0  0  0  0  0  0  0  0
   15.1054   69.3912   -5.0960 C   0  0  0  0  0  0  0  0  0  0  0  0
   13.4180   70.4864   -5.3456 H   0  0  0  0  0  0  0  0  0  0  0  0
   19.6210   72.1034   -6.3875 O   0  0  0  0  0  0  0  0  0  0  0  0
   18.7281   72.4496   -5.0850 P   0  0  2  0  0  0  0  0  0  0  0  0
   18.7834   71.0799   -4.2240 O   0  0  0  0  0  0  0  0  0  0  0  0
   17.3397   72.9268   -5.3993 O   0  0  0  0  0  0  0  0  0  0  0  0
   19.6212   73.4963   -4.2428 O   0  0  0  0  0  0  0  0  0  0  0  0
   20.0223   72.8273   -2.0066 O   0  0  0  0  0  0  0  0  0  0  0  0
   21.4847   76.6912   -2.0035 O   0  0  0  0  0  0  0  0  0  0  0  0
   18.9799   76.0569   -3.3666 O   0  0  0  0  0  0  0  0  0  0  0  0
   23.3193   74.4367   -2.0530 O   0  0  0  0  0  0  0  0  0  0  0  0
   21.1774   75.4146   -2.5637 C   0  0  2  0  0  0  0  0  0  0  0  0
   19.6695   75.1731   -2.4902 C   0  0  2  0  0  0  0  0  0  0  0  0
   21.9266   74.3515   -1.7572 C   0  0  1  0  0  0  0  0  0  0  0  0
   19.3274   73.7309   -2.8668 C   0  0  1  0  0  0  0  0  0  0  0  0
   21.4401   72.9465   -2.1004 C   0  0  1  0  0  0  0  0  0  0  0  0
   21.0195   77.3829   -2.5000 H   0  0  0  0  0  0  0  0  0  0  0  0
   19.1926   76.9739   -3.1335 H   0  0  0  0  0  0  0  0  0  0  0  0
   23.6414   75.3263   -1.8392 H   0  0  0  0  0  0  0  0  0  0  0  0
   22.5131   72.5867   -0.0459 O   0  0  0  0  0  0  0  0  0  0  0  0
   21.8153   70.7430   -1.1917 O   0  0  0  0  0  0  0  0  0  0  0  0
   21.9273   71.9558   -1.0936 C   0  0  0  0  0  0  0  0  0  0  0  0
  1  4  1  0
  1 24  1  0
  1  2  1  6
  1  3  2  0
 25 28  1  0
 25 24  1  0
 25 26  1  1
 25 27  2  0
  6 11  1  0
  6 12  1  0
 29 36  1  0
 29 37  1  0
  9  7  1  6
  7 13  1  0
 10  8  1  6
  8 14  1  0
  4  5  1  0
 36 28  1  6
 33 30  1  1
 30 38  1  0
 34 31  1  6
 31 39  1  0
 35 32  1  6
 32 40  1  0
 41 43  1  0
 15 19  2  0
 42 43  2  0
 16 22  2  0
 12 17  1  1
 17 19  1  0
 17 20  1  0
 18 19  1  0
 18 22  1  0
 18 23  1  0
  9 10  1  0
  9 11  1  0
 10 12  1  0
 11  5  1  1
 33 34  1  0
 33 35  1  0
 34 36  1  0
 35 37  1  0
 37 43  1  1
 20 21  2  0
 21 22  1  0
M  CHG  3   2  -1  26  -1  41  -1
M  END
>  <COMPND>  (106) 
    udp_gluA.pdb 

>  <AUTHOR>  (106) 
    GENERATED BY OPEN BABEL 3.1.1

>  <MASTER>  (106) 
        0    0    0    0    0    0    0    0   56    0   56    0

>  <minimizedAffinity>  (106) 
-7.24496

>  <CNNscore>  (106) 
0.5572171807

>  <CNNaffinity>  (106) 
4.3299760818

>  <CNN_VS>  (106) 
2.4127371311

>  <CNNaffinity_variance>  (106) 
0.1469379365

$$$$
107
     RDKit          3D

 43 45  0  0  0  0  0  0  0  0999 V2000
   17.0833   72.3476   -3.3207 P   0  0  2  0  0  0  0  0  0  0  0  0
   15.6938   72.1512   -2.5149 O   0  0  0  0  0  0  0  0  0  0  0  0
   17.9120   73.5180   -2.8788 O   0  0  0  0  0  0  0  0  0  0  0  0
   16.6339   72.3519   -4.8750 O   0  0  0  0  0  0  0  0  0  0  0  0
   15.8719   71.2623   -5.3615 C   0  0  0  0  0  0  0  0  0  0  0  0
   16.2552   72.5789   -7.3357 O   0  0  0  0  0  0  0  0  0  0  0  0
   14.4517   70.6452   -8.7498 O   0  0  0  0  0  0  0  0  0  0  0  0
   16.9345   69.7971   -9.4931 O   0  0  0  0  0  0  0  0  0  0  0  0
   15.3980   70.4024   -7.7085 C   0  0  1  0  0  0  0  0  0  0  0  0
   16.8080   70.4669   -8.2562 C   0  0  2  0  0  0  0  0  0  0  0  0
   15.3695   71.5938   -6.7608 C   0  0  1  0  0  0  0  0  0  0  0  0
   17.0314   71.9647   -8.3766 C   0  0  2  0  0  0  0  0  0  0  0  0
   14.4518   69.8972   -9.3680 H   0  0  0  0  0  0  0  0  0  0  0  0
   16.7837   68.8472   -9.3633 H   0  0  0  0  0  0  0  0  0  0  0  0
   19.0972   71.2631  -10.1702 O   0  0  0  0  0  0  0  0  0  0  0  0
   22.2835   73.4147   -7.6281 O   0  0  0  0  0  0  0  0  0  0  0  0
   18.4098   72.3285   -8.2078 N   0  0  0  0  0  0  0  0  0  0  0  0
   20.6823   72.3345   -8.9018 N   0  0  0  0  0  0  0  0  0  0  0  0
   19.3688   71.9255   -9.1669 C   0  0  0  0  0  0  0  0  0  0  0  0
   18.7993   73.0770   -7.1037 C   0  0  0  0  0  0  0  0  0  0  0  0
   20.0552   73.4595   -6.8646 C   0  0  0  0  0  0  0  0  0  0  0  0
   21.1184   73.0789   -7.8177 C   0  0  0  0  0  0  0  0  0  0  0  0
   21.3680   72.0641   -9.5545 H   0  0  0  0  0  0  0  0  0  0  0  0
   17.8051   70.9108   -3.1551 O   0  0  0  0  0  0  0  0  0  0  0  0
   19.2924   70.4179   -3.5534 P   0  0  2  0  0  0  0  0  0  0  0  0
   19.2589   70.4114   -5.1718 O   0  0  0  0  0  0  0  0  0  0  0  0
   19.6927   69.1084   -2.9379 O   0  0  0  0  0  0  0  0  0  0  0  0
   20.2507   71.6581   -3.1711 O   0  0  0  0  0  0  0  0  0  0  0  0
   22.1993   72.6248   -4.1078 O   0  0  0  0  0  0  0  0  0  0  0  0
   23.0534   72.7581   -0.0679 O   0  0  0  0  0  0  0  0  0  0  0  0
   21.8013   70.3930   -1.2395 O   0  0  0  0  0  0  0  0  0  0  0  0
   22.2711   75.1789   -1.4746 O   0  0  0  0  0  0  0  0  0  0  0  0
   22.2170   72.7832   -1.2245 C   0  0  2  0  0  0  0  0  0  0  0  0
   22.3601   71.4663   -1.9881 C   0  0  2  0  0  0  0  0  0  0  0  0
   22.6577   73.9574   -2.1014 C   0  0  1  0  0  0  0  0  0  0  0  0
   21.6616   71.5428   -3.3464 C   0  0  1  0  0  0  0  0  0  0  0  0
   22.0137   73.8931   -3.4833 C   0  0  1  0  0  0  0  0  0  0  0  0
   22.7919   72.0197    0.5045 H   0  0  0  0  0  0  0  0  0  0  0  0
   22.2397   70.3387   -0.3762 H   0  0  0  0  0  0  0  0  0  0  0  0
   22.6742   75.2322   -0.5940 H   0  0  0  0  0  0  0  0  0  0  0  0
   24.0085   74.5404   -4.5337 O   0  0  0  0  0  0  0  0  0  0  0  0
   22.1354   75.7434   -5.0271 O   0  0  0  0  0  0  0  0  0  0  0  0
   22.6888   74.8339   -4.4274 C   0  0  0  0  0  0  0  0  0  0  0  0
  1  4  1  0
  1 24  1  0
  1  2  1  1
  1  3  2  0
 25 28  1  0
 25 24  1  0
 25 26  1  6
 25 27  2  0
  6 11  1  0
  6 12  1  0
 29 36  1  0
 29 37  1  0
  9  7  1  6
  7 13  1  0
 10  8  1  6
  8 14  1  0
  4  5  1  0
 36 28  1  1
 33 30  1  1
 30 38  1  0
 34 31  1  1
 31 39  1  0
 35 32  1  1
 32 40  1  0
 41 43  1  0
 15 19  2  0
 42 43  2  0
 16 22  2  0
 12 17  1  1
 17 19  1  0
 17 20  1  0
 18 19  1  0
 18 22  1  0
 18 23  1  0
  9 10  1  0
  9 11  1  0
 10 12  1  0
 11  5  1  1
 33 34  1  0
 33 35  1  0
 34 36  1  0
 35 37  1  0
 37 43  1  6
 20 21  2  0
 21 22  1  0
M  CHG  3   2  -1  26  -1  41  -1
M  END
>  <COMPND>  (107) 
    udp_gluA.pdb 

>  <AUTHOR>  (107) 
    GENERATED BY OPEN BABEL 3.1.1

>  <MASTER>  (107) 
        0    0    0    0    0    0    0    0   56    0   56    0

>  <minimizedAffinity>  (107) 
-8.33332

>  <CNNscore>  (107) 
0.5450314879

>  <CNNaffinity>  (107) 
4.2882432938

>  <CNN_VS>  (107) 
2.3372275829

>  <CNNaffinity_variance>  (107) 
0.6495506763

$$$$
108
     RDKit          3D

 43 45  0  0  0  0  0  0  0  0999 V2000
   21.4544   71.6168   -2.1911 P   0  0  2  0  0  0  0  0  0  0  0  0
   22.8328   72.1021   -2.8862 O   0  0  0  0  0  0  0  0  0  0  0  0
   21.5313   70.2938   -1.4873 O   0  0  0  0  0  0  0  0  0  0  0  0
   20.3628   71.7171   -3.3813 O   0  0  0  0  0  0  0  0  0  0  0  0
   19.5445   70.5922   -3.6447 C   0  0  0  0  0  0  0  0  0  0  0  0
   17.5856   71.5594   -4.6471 O   0  0  0  0  0  0  0  0  0  0  0  0
   16.0379   70.2609   -2.4313 O   0  0  0  0  0  0  0  0  0  0  0  0
   15.6105   68.5696   -4.5272 O   0  0  0  0  0  0  0  0  0  0  0  0
   17.1876   69.7838   -3.1306 C   0  0  1  0  0  0  0  0  0  0  0  0
   16.8027   69.3267   -4.5217 C   0  0  2  0  0  0  0  0  0  0  0  0
   18.0870   70.9766   -3.4247 C   0  0  1  0  0  0  0  0  0  0  0  0
   16.6603   70.6471   -5.2594 C   0  0  2  0  0  0  0  0  0  0  0  0
   15.4481   69.5164   -2.2323 H   0  0  0  0  0  0  0  0  0  0  0  0
   15.7527   67.7390   -4.0457 H   0  0  0  0  0  0  0  0  0  0  0  0
   14.7773   70.0241   -7.2701 O   0  0  0  0  0  0  0  0  0  0  0  0
   17.9747   70.2287  -10.5834 O   0  0  0  0  0  0  0  0  0  0  0  0
   16.9736   70.5312   -6.6556 N   0  0  0  0  0  0  0  0  0  0  0  0
   16.3718   70.1256   -8.9183 N   0  0  0  0  0  0  0  0  0  0  0  0
   15.9538   70.2141   -7.5839 C   0  0  0  0  0  0  0  0  0  0  0  0
   18.2771   70.7325   -7.0930 C   0  0  0  0  0  0  0  0  0  0  0  0
   18.6602   70.6448   -8.3682 C   0  0  0  0  0  0  0  0  0  0  0  0
   17.6561   70.3165   -9.4015 C   0  0  0  0  0  0  0  0  0  0  0  0
   15.6799   69.9039   -9.5827 H   0  0  0  0  0  0  0  0  0  0  0  0
   21.0692   72.8648   -1.2388 O   0  0  0  0  0  0  0  0  0  0  0  0
   20.0120   74.0704   -1.4446 P   0  0  2  0  0  0  0  0  0  0  0  0
   20.2749   75.0167   -0.1578 O   0  0  0  0  0  0  0  0  0  0  0  0
   18.5881   73.6209   -1.6011 O   0  0  0  0  0  0  0  0  0  0  0  0
   20.5893   74.9122   -2.6938 O   0  0  0  0  0  0  0  0  0  0  0  0
   22.6181   76.1142   -2.4732 O   0  0  0  0  0  0  0  0  0  0  0  0
   20.9681   77.8598   -5.8344 O   0  0  0  0  0  0  0  0  0  0  0  0
   19.2988   77.2334   -3.5202 O   0  0  0  0  0  0  0  0  0  0  0  0
   23.1652   75.9747   -6.0985 O   0  0  0  0  0  0  0  0  0  0  0  0
   21.2372   76.8022   -4.9141 C   0  0  2  0  0  0  0  0  0  0  0  0
   20.7210   77.1868   -3.5273 C   0  0  2  0  0  0  0  0  0  0  0  0
   22.7512   76.5821   -4.8762 C   0  0  1  0  0  0  0  0  0  0  0  0
   21.1918   76.1859   -2.4713 C   0  0  1  0  0  0  0  0  0  0  0  0
   23.1531   75.6724   -3.7189 C   0  0  1  0  0  0  0  0  0  0  0  0
   20.0117   78.0177   -5.8752 H   0  0  0  0  0  0  0  0  0  0  0  0
   18.9931   77.8664   -4.1882 H   0  0  0  0  0  0  0  0  0  0  0  0
   22.9152   76.5436   -6.8433 H   0  0  0  0  0  0  0  0  0  0  0  0
   25.2942   75.1308   -4.5085 O   0  0  0  0  0  0  0  0  0  0  0  0
   25.1686   76.2387   -2.5196 O   0  0  0  0  0  0  0  0  0  0  0  0
   24.6283   75.7271   -3.4887 C   0  0  0  0  0  0  0  0  0  0  0  0
  1  4  1  0
  1 24  1  0
  1  2  1  6
  1  3  2  0
 25 28  1  0
 25 24  1  0
 25 26  1  1
 25 27  2  0
  6 11  1  0
  6 12  1  0
 29 36  1  0
 29 37  1  0
  9  7  1  1
  7 13  1  0
 10  8  1  1
  8 14  1  0
  4  5  1  0
 36 28  1  6
 33 30  1  6
 30 38  1  0
 34 31  1  6
 31 39  1  0
 35 32  1  6
 32 40  1  0
 41 43  1  0
 15 19  2  0
 42 43  2  0
 16 22  2  0
 12 17  1  6
 17 19  1  0
 17 20  1  0
 18 19  1  0
 18 22  1  0
 18 23  1  0
  9 10  1  0
  9 11  1  0
 10 12  1  0
 11  5  1  6
 33 34  1  0
 33 35  1  0
 34 36  1  0
 35 37  1  0
 37 43  1  1
 20 21  2  0
 21 22  1  0
M  CHG  3   2  -1  26  -1  41  -1
M  END
>  <COMPND>  (108) 
    udp_gluA.pdb 

>  <AUTHOR>  (108) 
    GENERATED BY OPEN BABEL 3.1.1

>  <MASTER>  (108) 
        0    0    0    0    0    0    0    0   56    0   56    0

>  <minimizedAffinity>  (108) 
-6.78474

>  <CNNscore>  (108) 
0.5281273723

>  <CNNaffinity>  (108) 
4.3410758972

>  <CNN_VS>  (108) 
2.2926409245

>  <CNNaffinity_variance>  (108) 
0.1517763436

$$$$
109
     RDKit          3D

 43 45  0  0  0  0  0  0  0  0999 V2000
   20.9107   73.6004   -6.5709 P   0  0  2  0  0  0  0  0  0  0  0  0
   19.8479   74.8037   -6.3671 O   0  0  0  0  0  0  0  0  0  0  0  0
   22.3512   73.9970   -6.4314 O   0  0  0  0  0  0  0  0  0  0  0  0
   20.4951   72.9518   -7.9937 O   0  0  0  0  0  0  0  0  0  0  0  0
   19.1203   72.8602   -8.3192 C   0  0  0  0  0  0  0  0  0  0  0  0
   18.7347   70.5526   -7.7678 O   0  0  0  0  0  0  0  0  0  0  0  0
   17.5780   70.2810  -10.5209 O   0  0  0  0  0  0  0  0  0  0  0  0
   15.3529   70.4624   -8.9549 O   0  0  0  0  0  0  0  0  0  0  0  0
   17.5050   71.3819   -9.6147 C   0  0  1  0  0  0  0  0  0  0  0  0
   16.5391   71.0723   -8.4907 C   0  0  2  0  0  0  0  0  0  0  0  0
   18.8339   71.4719   -8.8770 C   0  0  1  0  0  0  0  0  0  0  0  0
   17.3649   70.1500   -7.6101 C   0  0  2  0  0  0  0  0  0  0  0  0
   16.7400   70.2033  -11.0040 H   0  0  0  0  0  0  0  0  0  0  0  0
   14.8628   71.0896   -9.5103 H   0  0  0  0  0  0  0  0  0  0  0  0
   16.0886   72.3863   -6.4496 O   0  0  0  0  0  0  0  0  0  0  0  0
   16.0341   70.4212   -2.2807 O   0  0  0  0  0  0  0  0  0  0  0  0
   17.0057   70.2493   -6.2238 N   0  0  0  0  0  0  0  0  0  0  0  0
   16.0636   71.4058   -4.3741 N   0  0  0  0  0  0  0  0  0  0  0  0
   16.3677   71.4167   -5.7418 C   0  0  0  0  0  0  0  0  0  0  0  0
   17.2836   69.1983   -5.3583 C   0  0  0  0  0  0  0  0  0  0  0  0
   16.9876   69.2025   -4.0571 C   0  0  0  0  0  0  0  0  0  0  0  0
   16.3207   70.3849   -3.4735 C   0  0  0  0  0  0  0  0  0  0  0  0
   15.6210   72.2086   -4.0150 H   0  0  0  0  0  0  0  0  0  0  0  0
   20.4115   72.4913   -5.5062 O   0  0  0  0  0  0  0  0  0  0  0  0
   19.7806   72.6491   -4.0261 P   0  0  2  0  0  0  0  0  0  0  0  0
   19.8236   71.1396   -3.4429 O   0  0  0  0  0  0  0  0  0  0  0  0
   18.4199   73.2831   -4.0011 O   0  0  0  0  0  0  0  0  0  0  0  0
   20.9047   73.4430   -3.1845 O   0  0  0  0  0  0  0  0  0  0  0  0
   23.2237   73.7228   -3.5759 O   0  0  0  0  0  0  0  0  0  0  0  0
   23.0739   73.6216    0.5515 O   0  0  0  0  0  0  0  0  0  0  0  0
   21.4648   71.7697   -1.0345 O   0  0  0  0  0  0  0  0  0  0  0  0
   23.4553   76.1490   -0.8333 O   0  0  0  0  0  0  0  0  0  0  0  0
   22.5932   73.9003   -0.7635 C   0  0  2  0  0  0  0  0  0  0  0  0
   22.4957   72.5984   -1.5592 C   0  0  2  0  0  0  0  0  0  0  0  0
   23.5783   74.8609   -1.4334 C   0  0  1  0  0  0  0  0  0  0  0  0
   22.2064   72.8793   -3.0344 C   0  0  1  0  0  0  0  0  0  0  0  0
   23.3005   74.9907   -2.9282 C   0  0  1  0  0  0  0  0  0  0  0  0
   22.4638   73.0127    0.9968 H   0  0  0  0  0  0  0  0  0  0  0  0
   21.6418   71.5877   -0.0986 H   0  0  0  0  0  0  0  0  0  0  0  0
   23.6295   76.0803    0.1184 H   0  0  0  0  0  0  0  0  0  0  0  0
   24.5289   76.9598   -3.2677 O   0  0  0  0  0  0  0  0  0  0  0  0
   25.2036   75.1036   -4.4070 O   0  0  0  0  0  0  0  0  0  0  0  0
   24.4438   75.6543   -3.6245 C   0  0  0  0  0  0  0  0  0  0  0  0
  1  4  1  0
  1 24  1  0
  1  2  1  1
  1  3  2  0
 25 28  1  0
 25 24  1  0
 25 26  1  1
 25 27  2  0
  6 11  1  0
  6 12  1  0
 29 36  1  0
 29 37  1  0
  9  7  1  6
  7 13  1  0
 10  8  1  6
  8 14  1  0
  4  5  1  0
 36 28  1  1
 33 30  1  1
 30 38  1  0
 34 31  1  1
 31 39  1  0
 35 32  1  1
 32 40  1  0
 41 43  1  0
 15 19  2  0
 42 43  2  0
 16 22  2  0
 12 17  1  1
 17 19  1  0
 17 20  1  0
 18 19  1  0
 18 22  1  0
 18 23  1  0
  9 10  1  0
  9 11  1  0
 10 12  1  0
 11  5  1  1
 33 34  1  0
 33 35  1  0
 34 36  1  0
 35 37  1  0
 37 43  1  6
 20 21  2  0
 21 22  1  0
M  CHG  3   2  -1  26  -1  41  -1
M  END
>  <COMPND>  (109) 
    udp_gluA.pdb 

>  <AUTHOR>  (109) 
    GENERATED BY OPEN BABEL 3.1.1

>  <MASTER>  (109) 
        0    0    0    0    0    0    0    0   56    0   56    0

>  <minimizedAffinity>  (109) 
-7.40442

>  <CNNscore>  (109) 
0.5274867415

>  <CNNaffinity>  (109) 
4.2350811958

>  <CNN_VS>  (109) 
2.2339491844

>  <CNNaffinity_variance>  (109) 
0.5554897189

$$$$
110
     RDKit          3D

 43 45  0  0  0  0  0  0  0  0999 V2000
   16.0147   71.0636   -3.1192 P   0  0  2  0  0  0  0  0  0  0  0  0
   15.6659   69.8497   -4.1309 O   0  0  0  0  0  0  0  0  0  0  0  0
   15.7585   70.7735   -1.6693 O   0  0  0  0  0  0  0  0  0  0  0  0
   15.2119   72.3260   -3.7355 O   0  0  0  0  0  0  0  0  0  0  0  0
   14.3991   72.1188   -4.8761 C   0  0  0  0  0  0  0  0  0  0  0  0
   15.8969   73.1909   -6.4205 O   0  0  0  0  0  0  0  0  0  0  0  0
   13.4803   74.6046   -7.4943 O   0  0  0  0  0  0  0  0  0  0  0  0
   13.8764   72.6252   -9.3277 O   0  0  0  0  0  0  0  0  0  0  0  0
   13.6015   73.2707   -6.9996 C   0  0  1  0  0  0  0  0  0  0  0  0
   14.3241   72.4017   -8.0070 C   0  0  2  0  0  0  0  0  0  0  0  0
   14.5809   73.2891   -5.8341 C   0  0  1  0  0  0  0  0  0  0  0  0
   15.7708   72.8174   -7.8018 C   0  0  2  0  0  0  0  0  0  0  0  0
   12.8594   74.6181   -8.2399 H   0  0  0  0  0  0  0  0  0  0  0  0
   12.9508   72.3445   -9.4072 H   0  0  0  0  0  0  0  0  0  0  0  0
   17.7453   72.9094   -9.8191 O   0  0  0  0  0  0  0  0  0  0  0  0
   19.2503   68.6753   -8.7938 O   0  0  0  0  0  0  0  0  0  0  0  0
   16.6920   71.7530   -8.0836 N   0  0  0  0  0  0  0  0  0  0  0  0
   18.4923   70.8001   -9.3072 N   0  0  0  0  0  0  0  0  0  0  0  0
   17.6453   71.9001   -9.1189 C   0  0  0  0  0  0  0  0  0  0  0  0
   16.6470   70.5812   -7.3381 C   0  0  0  0  0  0  0  0  0  0  0  0
   17.4611   69.5413   -7.5293 C   0  0  0  0  0  0  0  0  0  0  0  0
   18.4853   69.6135   -8.5919 C   0  0  0  0  0  0  0  0  0  0  0  0
   19.1630   70.8782  -10.0237 H   0  0  0  0  0  0  0  0  0  0  0  0
   17.5543   71.4026   -3.4762 O   0  0  0  0  0  0  0  0  0  0  0  0
   18.8952   70.5085   -3.3484 P   0  0  2  0  0  0  0  0  0  0  0  0
   19.3221   70.2596   -4.8898 O   0  0  0  0  0  0  0  0  0  0  0  0
   18.7236   69.2527   -2.5438 O   0  0  0  0  0  0  0  0  0  0  0  0
   20.0107   71.5234   -2.7757 O   0  0  0  0  0  0  0  0  0  0  0  0
   21.7879   72.4171   -4.0611 O   0  0  0  0  0  0  0  0  0  0  0  0
   23.2966   72.7055   -0.2260 O   0  0  0  0  0  0  0  0  0  0  0  0
   21.8459   70.3146   -1.0707 O   0  0  0  0  0  0  0  0  0  0  0  0
   22.3168   75.0778   -1.5908 O   0  0  0  0  0  0  0  0  0  0  0  0
   22.2815   72.6960   -1.2297 C   0  0  2  0  0  0  0  0  0  0  0  0
   22.2842   71.3460   -1.9475 C   0  0  2  0  0  0  0  0  0  0  0  0
   22.5831   73.8248   -2.2180 C   0  0  1  0  0  0  0  0  0  0  0  0
   21.3724   71.3772   -3.1748 C   0  0  1  0  0  0  0  0  0  0  0  0
   21.7198   73.7134   -3.4713 C   0  0  1  0  0  0  0  0  0  0  0  0
   23.1258   71.9962    0.4136 H   0  0  0  0  0  0  0  0  0  0  0  0
   22.4199   70.2893   -0.2895 H   0  0  0  0  0  0  0  0  0  0  0  0
   22.8599   75.1612   -0.7915 H   0  0  0  0  0  0  0  0  0  0  0  0
   22.6917   73.8679   -5.6004 O   0  0  0  0  0  0  0  0  0  0  0  0
   22.2559   75.8233   -4.5117 O   0  0  0  0  0  0  0  0  0  0  0  0
   22.2394   74.6023   -4.5540 C   0  0  0  0  0  0  0  0  0  0  0  0
  1  4  1  0
  1 24  1  0
  1  2  1  6
  1  3  2  0
 25 28  1  0
 25 24  1  0
 25 26  1  6
 25 27  2  0
  6 11  1  0
  6 12  1  0
 29 36  1  0
 29 37  1  0
  9  7  1  6
  7 13  1  0
 10  8  1  6
  8 14  1  0
  4  5  1  0
 36 28  1  1
 33 30  1  1
 30 38  1  0
 34 31  1  1
 31 39  1  0
 35 32  1  1
 32 40  1  0
 41 43  1  0
 15 19  2  0
 42 43  2  0
 16 22  2  0
 12 17  1  1
 17 19  1  0
 17 20  1  0
 18 19  1  0
 18 22  1  0
 18 23  1  0
  9 10  1  0
  9 11  1  0
 10 12  1  0
 11  5  1  1
 33 34  1  0
 33 35  1  0
 34 36  1  0
 35 37  1  0
 37 43  1  6
 20 21  2  0
 21 22  1  0
M  CHG  3   2  -1  26  -1  41  -1
M  END
>  <COMPND>  (110) 
    udp_gluA.pdb 

>  <AUTHOR>  (110) 
    GENERATED BY OPEN BABEL 3.1.1

>  <MASTER>  (110) 
        0    0    0    0    0    0    0    0   56    0   56    0

>  <minimizedAffinity>  (110) 
-7.76517

>  <CNNscore>  (110) 
0.5116420984

>  <CNNaffinity>  (110) 
4.5569715500

>  <CNN_VS>  (110) 
2.3315384388

>  <CNNaffinity_variance>  (110) 
0.1613297462

$$$$
111
     RDKit          3D

 43 45  0  0  0  0  0  0  0  0999 V2000
   17.0651   74.1050   -5.8964 P   0  0  2  0  0  0  0  0  0  0  0  0
   15.6128   74.6597   -5.4470 O   0  0  0  0  0  0  0  0  0  0  0  0
   18.1362   75.1501   -6.0068 O   0  0  0  0  0  0  0  0  0  0  0  0
   16.7600   73.2664   -7.2461 O   0  0  0  0  0  0  0  0  0  0  0  0
   17.4952   73.5766   -8.4156 C   0  0  0  0  0  0  0  0  0  0  0  0
   18.4909   71.5641   -7.5577 O   0  0  0  0  0  0  0  0  0  0  0  0
   19.2291   70.9407  -10.3964 O   0  0  0  0  0  0  0  0  0  0  0  0
   17.0313   69.3771   -9.9951 O   0  0  0  0  0  0  0  0  0  0  0  0
   18.0580   71.5786   -9.8865 C   0  0  1  0  0  0  0  0  0  0  0  0
   17.1489   70.5598   -9.2323 C   0  0  2  0  0  0  0  0  0  0  0  0
   18.4713   72.4431   -8.7033 C   0  0  1  0  0  0  0  0  0  0  0  0
   17.8408   70.3296   -7.8995 C   0  0  2  0  0  0  0  0  0  0  0  0
   18.9901   70.3825  -11.1534 H   0  0  0  0  0  0  0  0  0  0  0  0
   16.5844   69.5762  -10.8334 H   0  0  0  0  0  0  0  0  0  0  0  0
   18.6000   69.3858   -5.3482 O   0  0  0  0  0  0  0  0  0  0  0  0
   14.2151   69.0315   -3.9731 O   0  0  0  0  0  0  0  0  0  0  0  0
   16.9181   69.9832   -6.8557 N   0  0  0  0  0  0  0  0  0  0  0  0
   16.4153   69.2093   -4.6661 N   0  0  0  0  0  0  0  0  0  0  0  0
   17.4031   69.5187   -5.6103 C   0  0  0  0  0  0  0  0  0  0  0  0
   15.5506   70.1064   -7.0697 C   0  0  0  0  0  0  0  0  0  0  0  0
   14.6212   69.8077   -6.1600 C   0  0  0  0  0  0  0  0  0  0  0  0
   15.0440   69.3148   -4.8327 C   0  0  0  0  0  0  0  0  0  0  0  0
   16.7287   68.8819   -3.7920 H   0  0  0  0  0  0  0  0  0  0  0  0
   17.3637   72.9470   -4.8089 O   0  0  0  0  0  0  0  0  0  0  0  0
   17.4271   72.9981   -3.1942 P   0  0  2  0  0  0  0  0  0  0  0  0
   16.7963   71.5738   -2.7541 O   0  0  0  0  0  0  0  0  0  0  0  0
   16.7446   74.1904   -2.5886 O   0  0  0  0  0  0  0  0  0  0  0  0
   18.9965   72.8746   -2.8421 O   0  0  0  0  0  0  0  0  0  0  0  0
   20.9452   72.8885   -4.1881 O   0  0  0  0  0  0  0  0  0  0  0  0
   21.9608   70.1493   -1.2670 O   0  0  0  0  0  0  0  0  0  0  0  0
   19.2865   70.1374   -2.4427 O   0  0  0  0  0  0  0  0  0  0  0  0
   23.0797   72.8317   -1.2044 O   0  0  0  0  0  0  0  0  0  0  0  0
   21.3148   71.3044   -1.8023 C   0  0  2  0  0  0  0  0  0  0  0  0
   20.3862   70.8886   -2.9436 C   0  0  2  0  0  0  0  0  0  0  0  0
   22.3974   72.2559   -2.3167 C   0  0  1  0  0  0  0  0  0  0  0  0
   19.8544   72.1130   -3.6898 C   0  0  1  0  0  0  0  0  0  0  0  0
   21.7977   73.3801   -3.1564 C   0  0  1  0  0  0  0  0  0  0  0  0
   21.2923   69.5301   -0.9339 H   0  0  0  0  0  0  0  0  0  0  0  0
   19.6166   69.3591   -1.9677 H   0  0  0  0  0  0  0  0  0  0  0  0
   23.4659   72.1266   -0.6616 H   0  0  0  0  0  0  0  0  0  0  0  0
   22.9350   73.6426   -5.1909 O   0  0  0  0  0  0  0  0  0  0  0  0
   23.5745   74.9837   -3.4612 O   0  0  0  0  0  0  0  0  0  0  0  0
   22.8632   74.1007   -3.9165 C   0  0  0  0  0  0  0  0  0  0  0  0
  1  4  1  0
  1 24  1  0
  1  2  1  1
  1  3  2  0
 25 28  1  0
 25 24  1  0
 25 26  1  1
 25 27  2  0
  6 11  1  0
  6 12  1  0
 29 36  1  0
 29 37  1  0
  9  7  1  1
  7 13  1  0
 10  8  1  6
  8 14  1  0
  4  5  1  0
 36 28  1  1
 33 30  1  6
 30 38  1  0
 34 31  1  1
 31 39  1  0
 35 32  1  1
 32 40  1  0
 41 43  1  0
 15 19  2  0
 42 43  2  0
 16 22  2  0
 12 17  1  1
 17 19  1  0
 17 20  1  0
 18 19  1  0
 18 22  1  0
 18 23  1  0
  9 10  1  0
  9 11  1  0
 10 12  1  0
 11  5  1  1
 33 34  1  0
 33 35  1  0
 34 36  1  0
 35 37  1  0
 37 43  1  6
 20 21  2  0
 21 22  1  0
M  CHG  3   2  -1  26  -1  41  -1
M  END
>  <COMPND>  (111) 
    udp_gluA.pdb 

>  <AUTHOR>  (111) 
    GENERATED BY OPEN BABEL 3.1.1

>  <MASTER>  (111) 
        0    0    0    0    0    0    0    0   56    0   56    0

>  <minimizedAffinity>  (111) 
-7.37027

>  <CNNscore>  (111) 
0.5103741884

>  <CNNaffinity>  (111) 
4.2831578255

>  <CNN_VS>  (111) 
2.1860132217

>  <CNNaffinity_variance>  (111) 
0.8212014437

$$$$
112
     RDKit          3D

 43 45  0  0  0  0  0  0  0  0999 V2000
   21.1406   73.8420   -6.5266 P   0  0  2  0  0  0  0  0  0  0  0  0
   20.9441   75.0409   -7.5957 O   0  0  0  0  0  0  0  0  0  0  0  0
   22.5660   73.5410   -6.1670 O   0  0  0  0  0  0  0  0  0  0  0  0
   20.3018   72.6131   -7.1624 O   0  0  0  0  0  0  0  0  0  0  0  0
   19.3800   72.8894   -8.2009 C   0  0  0  0  0  0  0  0  0  0  0  0
   19.1930   70.5011   -8.0038 O   0  0  0  0  0  0  0  0  0  0  0  0
   17.5883   70.6044  -10.5348 O   0  0  0  0  0  0  0  0  0  0  0  0
   15.6633   70.3679   -8.6180 O   0  0  0  0  0  0  0  0  0  0  0  0
   17.6278   71.5334   -9.4513 C   0  0  1  0  0  0  0  0  0  0  0  0
   16.8854   70.9757   -8.2554 C   0  0  2  0  0  0  0  0  0  0  0  0
   19.0596   71.5949   -8.9371 C   0  0  1  0  0  0  0  0  0  0  0  0
   17.8894   69.9821   -7.6963 C   0  0  2  0  0  0  0  0  0  0  0  0
   16.6832   70.5481  -10.8800 H   0  0  0  0  0  0  0  0  0  0  0  0
   15.0584   71.0416   -8.9677 H   0  0  0  0  0  0  0  0  0  0  0  0
   15.6639   68.8276   -6.3960 O   0  0  0  0  0  0  0  0  0  0  0  0
   17.5489   69.4363   -2.2343 O   0  0  0  0  0  0  0  0  0  0  0  0
   17.7725   69.8264   -6.2740 N   0  0  0  0  0  0  0  0  0  0  0  0
   16.6044   69.1328   -4.3244 N   0  0  0  0  0  0  0  0  0  0  0  0
   16.6123   69.2336   -5.7218 C   0  0  0  0  0  0  0  0  0  0  0  0
   18.7993   70.2565   -5.4424 C   0  0  0  0  0  0  0  0  0  0  0  0
   18.7774   70.1536   -4.1121 C   0  0  0  0  0  0  0  0  0  0  0  0
   17.6010   69.5467   -3.4555 C   0  0  0  0  0  0  0  0  0  0  0  0
   15.8062   68.7253   -3.9168 H   0  0  0  0  0  0  0  0  0  0  0  0
   20.2169   74.3083   -5.2847 O   0  0  0  0  0  0  0  0  0  0  0  0
   20.2297   73.8693   -3.7288 P   0  0  2  0  0  0  0  0  0  0  0  0
   20.3266   75.2831   -2.9464 O   0  0  0  0  0  0  0  0  0  0  0  0
   21.3115   72.8907   -3.3739 O   0  0  0  0  0  0  0  0  0  0  0  0
   18.7317   73.3455   -3.4390 O   0  0  0  0  0  0  0  0  0  0  0  0
   16.6988   73.9994   -4.4633 O   0  0  0  0  0  0  0  0  0  0  0  0
   15.4413   73.0121   -0.6538 O   0  0  0  0  0  0  0  0  0  0  0  0
   17.9124   74.5182   -1.0537 O   0  0  0  0  0  0  0  0  0  0  0  0
   14.9292   71.2060   -2.8734 O   0  0  0  0  0  0  0  0  0  0  0  0
   16.2569   72.9196   -1.8218 C   0  0  2  0  0  0  0  0  0  0  0  0
   16.9500   74.2597   -2.0695 C   0  0  2  0  0  0  0  0  0  0  0  0
   15.3522   72.5620   -3.0032 C   0  0  1  0  0  0  0  0  0  0  0  0
   17.6470   74.2718   -3.4307 C   0  0  1  0  0  0  0  0  0  0  0  0
   16.0840   72.7195   -4.3329 C   0  0  1  0  0  0  0  0  0  0  0  0
   15.9948   73.2386    0.1101 H   0  0  0  0  0  0  0  0  0  0  0  0
   17.4771   74.5117   -0.1872 H   0  0  0  0  0  0  0  0  0  0  0  0
   14.4621   71.0922   -2.0310 H   0  0  0  0  0  0  0  0  0  0  0  0
   15.4347   73.6439   -6.3885 O   0  0  0  0  0  0  0  0  0  0  0  0
   14.1794   71.9205   -5.5802 O   0  0  0  0  0  0  0  0  0  0  0  0
   15.1209   72.6922   -5.4749 C   0  0  0  0  0  0  0  0  0  0  0  0
  1  4  1  0
  1 24  1  0
  1  2  1  6
  1  3  2  0
 25 28  1  0
 25 24  1  0
 25 26  1  1
 25 27  2  0
  6 11  1  0
  6 12  1  0
 29 36  1  0
 29 37  1  0
  9  7  1  6
  7 13  1  0
 10  8  1  6
  8 14  1  0
  4  5  1  0
 36 28  1  1
 33 30  1  1
 30 38  1  0
 34 31  1  1
 31 39  1  0
 35 32  1  1
 32 40  1  0
 41 43  1  0
 15 19  2  0
 42 43  2  0
 16 22  2  0
 12 17  1  1
 17 19  1  0
 17 20  1  0
 18 19  1  0
 18 22  1  0
 18 23  1  0
  9 10  1  0
  9 11  1  0
 10 12  1  0
 11  5  1  1
 33 34  1  0
 33 35  1  0
 34 36  1  0
 35 37  1  0
 37 43  1  6
 20 21  2  0
 21 22  1  0
M  CHG  3   2  -1  26  -1  41  -1
M  END
>  <COMPND>  (112) 
    udp_gluA.pdb 

>  <AUTHOR>  (112) 
    GENERATED BY OPEN BABEL 3.1.1

>  <MASTER>  (112) 
        0    0    0    0    0    0    0    0   56    0   56    0

>  <minimizedAffinity>  (112) 
-6.22388

>  <CNNscore>  (112) 
0.5076941848

>  <CNNaffinity>  (112) 
3.9473319054

>  <CNN_VS>  (112) 
2.0040373802

>  <CNNaffinity_variance>  (112) 
0.9427047968

$$$$
113
     RDKit          3D

 43 45  0  0  0  0  0  0  0  0999 V2000
   18.5916   70.2374   -8.8934 P   0  0  2  0  0  0  0  0  0  0  0  0
   19.0747   68.7304   -8.5553 O   0  0  0  0  0  0  0  0  0  0  0  0
   19.1290   70.8024  -10.1755 O   0  0  0  0  0  0  0  0  0  0  0  0
   18.9508   71.0704   -7.5535 O   0  0  0  0  0  0  0  0  0  0  0  0
   19.7185   72.2534   -7.6783 C   0  0  0  0  0  0  0  0  0  0  0  0
   18.6926   73.0866   -5.6706 O   0  0  0  0  0  0  0  0  0  0  0  0
   18.8014   75.7918   -6.9596 O   0  0  0  0  0  0  0  0  0  0  0  0
   20.9269   75.8592   -5.2526 O   0  0  0  0  0  0  0  0  0  0  0  0
   19.7362   74.7154   -7.0376 C   0  0  1  0  0  0  0  0  0  0  0  0
   20.5132   74.6012   -5.7431 C   0  0  2  0  0  0  0  0  0  0  0  0
   18.9506   73.4113   -7.0538 C   0  0  1  0  0  0  0  0  0  0  0  0
   19.5076   73.9197   -4.8308 C   0  0  2  0  0  0  0  0  0  0  0  0
   19.2800   76.6359   -6.9478 H   0  0  0  0  0  0  0  0  0  0  0  0
   21.5663   76.2519   -5.8682 H   0  0  0  0  0  0  0  0  0  0  0  0
   18.2901   73.1390   -2.4050 O   0  0  0  0  0  0  0  0  0  0  0  0
   22.0225   70.7823   -1.0786 O   0  0  0  0  0  0  0  0  0  0  0  0
   20.1385   73.1022   -3.8335 N   0  0  0  0  0  0  0  0  0  0  0  0
   20.1506   71.9669   -1.7462 N   0  0  0  0  0  0  0  0  0  0  0  0
   19.4395   72.7675   -2.6497 C   0  0  0  0  0  0  0  0  0  0  0  0
   21.4336   72.6399   -4.0334 C   0  0  0  0  0  0  0  0  0  0  0  0
   22.0983   71.8774   -3.1630 C   0  0  0  0  0  0  0  0  0  0  0  0
   21.4398   71.4833   -1.9004 C   0  0  0  0  0  0  0  0  0  0  0  0
   19.6853   71.7225   -0.9136 H   0  0  0  0  0  0  0  0  0  0  0  0
   16.9804   70.1248   -8.8302 O   0  0  0  0  0  0  0  0  0  0  0  0
   15.8707   71.1187   -8.2023 P   0  0  2  0  0  0  0  0  0  0  0  0
   14.4723   70.4763   -8.7044 O   0  0  0  0  0  0  0  0  0  0  0  0
   16.0565   72.5618   -8.5726 O   0  0  0  0  0  0  0  0  0  0  0  0
   15.9080   70.8243   -6.6166 O   0  0  0  0  0  0  0  0  0  0  0  0
   17.2187   69.2542   -5.4224 O   0  0  0  0  0  0  0  0  0  0  0  0
   13.8119   69.4495   -3.0936 O   0  0  0  0  0  0  0  0  0  0  0  0
   13.6119   69.3777   -6.0072 O   0  0  0  0  0  0  0  0  0  0  0  0
   16.2477   70.7808   -2.2304 O   0  0  0  0  0  0  0  0  0  0  0  0
   14.8155   69.9464   -3.9790 C   0  0  2  0  0  0  0  0  0  0  0  0
   14.8055   69.1318   -5.2727 C   0  0  2  0  0  0  0  0  0  0  0  0
   16.1700   69.8168   -3.2788 C   0  0  1  0  0  0  0  0  0  0  0  0
   16.0098   69.4808   -6.1482 C   0  0  1  0  0  0  0  0  0  0  0  0
   17.3236   70.0567   -4.2485 C   0  0  1  0  0  0  0  0  0  0  0  0
   12.9421   69.5217   -3.5173 H   0  0  0  0  0  0  0  0  0  0  0  0
   12.8436   69.1587   -5.4576 H   0  0  0  0  0  0  0  0  0  0  0  0
   15.5189   70.6392   -1.6063 H   0  0  0  0  0  0  0  0  0  0  0  0
   19.6193   69.6942   -4.5643 O   0  0  0  0  0  0  0  0  0  0  0  0
   18.7664   69.2263   -2.5020 O   0  0  0  0  0  0  0  0  0  0  0  0
   18.6191   69.6113   -3.6523 C   0  0  0  0  0  0  0  0  0  0  0  0
  1  4  1  0
  1 24  1  0
  1  2  1  1
  1  3  2  0
 25 28  1  0
 25 24  1  0
 25 26  1  6
 25 27  2  0
  6 11  1  0
  6 12  1  0
 29 36  1  0
 29 37  1  0
  9  7  1  1
  7 13  1  0
 10  8  1  1
  8 14  1  0
  4  5  1  0
 36 28  1  1
 33 30  1  1
 30 38  1  0
 34 31  1  6
 31 39  1  0
 35 32  1  1
 32 40  1  0
 41 43  1  0
 15 19  2  0
 42 43  2  0
 16 22  2  0
 12 17  1  1
 17 19  1  0
 17 20  1  0
 18 19  1  0
 18 22  1  0
 18 23  1  0
  9 10  1  0
  9 11  1  0
 10 12  1  0
 11  5  1  1
 33 34  1  0
 33 35  1  0
 34 36  1  0
 35 37  1  0
 37 43  1  1
 20 21  2  0
 21 22  1  0
M  CHG  3   2  -1  26  -1  41  -1
M  END
>  <COMPND>  (113) 
    udp_gluA.pdb 

>  <AUTHOR>  (113) 
    GENERATED BY OPEN BABEL 3.1.1

>  <MASTER>  (113) 
        0    0    0    0    0    0    0    0   56    0   56    0

>  <minimizedAffinity>  (113) 
-7.49391

>  <CNNscore>  (113) 
0.5031542182

>  <CNNaffinity>  (113) 
4.1357965469

>  <CNN_VS>  (113) 
2.0809435844

>  <CNNaffinity_variance>  (113) 
0.6995316744

$$$$
114
     RDKit          3D

 43 45  0  0  0  0  0  0  0  0999 V2000
   21.4456   71.5597   -2.1430 P   0  0  2  0  0  0  0  0  0  0  0  0
   22.7929   72.3574   -2.5522 O   0  0  0  0  0  0  0  0  0  0  0  0
   21.6716   70.2473   -1.4515 O   0  0  0  0  0  0  0  0  0  0  0  0
   20.6007   71.4914   -3.5212 O   0  0  0  0  0  0  0  0  0  0  0  0
   19.6882   70.4242   -3.7028 C   0  0  0  0  0  0  0  0  0  0  0  0
   17.7654   71.5078   -4.6546 O   0  0  0  0  0  0  0  0  0  0  0  0
   16.2255   70.4068   -2.3291 O   0  0  0  0  0  0  0  0  0  0  0  0
   15.5752   68.6864   -4.3424 O   0  0  0  0  0  0  0  0  0  0  0  0
   17.3024   69.8191   -3.0594 C   0  0  1  0  0  0  0  0  0  0  0  0
   16.8207   69.3482   -4.4153 C   0  0  2  0  0  0  0  0  0  0  0  0
   18.2759   70.9280   -3.4346 C   0  0  1  0  0  0  0  0  0  0  0  0
   16.7462   70.6508   -5.1934 C   0  0  2  0  0  0  0  0  0  0  0  0
   15.5902   69.7175   -2.0783 H   0  0  0  0  0  0  0  0  0  0  0  0
   15.6754   67.8635   -3.8378 H   0  0  0  0  0  0  0  0  0  0  0  0
   14.7190   70.5421   -7.1569 O   0  0  0  0  0  0  0  0  0  0  0  0
   17.7819   69.9355  -10.5472 O   0  0  0  0  0  0  0  0  0  0  0  0
   16.9859   70.4654   -6.5967 N   0  0  0  0  0  0  0  0  0  0  0  0
   16.2464   70.2391   -8.8435 N   0  0  0  0  0  0  0  0  0  0  0  0
   15.8971   70.4252   -7.4994 C   0  0  0  0  0  0  0  0  0  0  0  0
   18.2866   70.3273   -7.0658 C   0  0  0  0  0  0  0  0  0  0  0  0
   18.6038   70.1506   -8.3499 C   0  0  0  0  0  0  0  0  0  0  0  0
   17.5248   70.0962   -9.3580 C   0  0  0  0  0  0  0  0  0  0  0  0
   15.5051   70.2057   -9.4906 H   0  0  0  0  0  0  0  0  0  0  0  0
   20.6299   72.6489   -1.2704 O   0  0  0  0  0  0  0  0  0  0  0  0
   20.8733   74.2323   -1.0531 P   0  0  2  0  0  0  0  0  0  0  0  0
   19.4769   74.7359   -0.4074 O   0  0  0  0  0  0  0  0  0  0  0  0
   21.2811   74.9689   -2.2961 O   0  0  0  0  0  0  0  0  0  0  0  0
   21.9366   74.3207    0.1568 O   0  0  0  0  0  0  0  0  0  0  0  0
   21.7013   75.8263    1.9698 O   0  0  0  0  0  0  0  0  0  0  0  0
   25.7524   75.0217    2.0656 O   0  0  0  0  0  0  0  0  0  0  0  0
   24.3904   75.4647   -0.4806 O   0  0  0  0  0  0  0  0  0  0  0  0
   23.9769   73.8068    4.0207 O   0  0  0  0  0  0  0  0  0  0  0  0
   24.3726   74.7381    1.8341 C   0  0  2  0  0  0  0  0  0  0  0  0
   23.8164   75.7143    0.7972 C   0  0  2  0  0  0  0  0  0  0  0  0
   23.6288   74.8918    3.1626 C   0  0  1  0  0  0  0  0  0  0  0  0
   22.2955   75.5932    0.6923 C   0  0  1  0  0  0  0  0  0  0  0  0
   22.1166   74.8864    2.9584 C   0  0  1  0  0  0  0  0  0  0  0  0
   26.2453   74.9304    1.2349 H   0  0  0  0  0  0  0  0  0  0  0  0
   25.3554   75.5397   -0.4213 H   0  0  0  0  0  0  0  0  0  0  0  0
   24.9370   73.7989    4.1587 H   0  0  0  0  0  0  0  0  0  0  0  0
   22.2973   75.5636    5.1967 O   0  0  0  0  0  0  0  0  0  0  0  0
   20.2091   75.5448    4.2810 O   0  0  0  0  0  0  0  0  0  0  0  0
   21.4135   75.3605    4.1885 C   0  0  0  0  0  0  0  0  0  0  0  0
  1  4  1  0
  1 24  1  0
  1  2  1  6
  1  3  2  0
 25 28  1  0
 25 24  1  0
 25 26  1  1
 25 27  2  0
  6 11  1  0
  6 12  1  0
 29 36  1  0
 29 37  1  0
  9  7  1  1
  7 13  1  0
 10  8  1  1
  8 14  1  0
  4  5  1  0
 36 28  1  1
 33 30  1  1
 30 38  1  0
 34 31  1  6
 31 39  1  0
 35 32  1  1
 32 40  1  0
 41 43  1  0
 15 19  2  0
 42 43  2  0
 16 22  2  0
 12 17  1  6
 17 19  1  0
 17 20  1  0
 18 19  1  0
 18 22  1  0
 18 23  1  0
  9 10  1  0
  9 11  1  0
 10 12  1  0
 11  5  1  6
 33 34  1  0
 33 35  1  0
 34 36  1  0
 35 37  1  0
 37 43  1  1
 20 21  2  0
 21 22  1  0
M  CHG  3   2  -1  26  -1  41  -1
M  END
>  <COMPND>  (114) 
    udp_gluA.pdb 

>  <AUTHOR>  (114) 
    GENERATED BY OPEN BABEL 3.1.1

>  <MASTER>  (114) 
        0    0    0    0    0    0    0    0   56    0   56    0

>  <minimizedAffinity>  (114) 
-7.57558

>  <CNNscore>  (114) 
0.4874077439

>  <CNNaffinity>  (114) 
4.3458213806

>  <CNN_VS>  (114) 
2.1181869507

>  <CNNaffinity_variance>  (114) 
0.1189937964

$$$$
115
     RDKit          3D

 43 45  0  0  0  0  0  0  0  0999 V2000
   21.0142   73.5692   -6.5807 P   0  0  2  0  0  0  0  0  0  0  0  0
   20.0794   74.8902   -6.5660 O   0  0  0  0  0  0  0  0  0  0  0  0
   22.4744   73.8237   -6.3467 O   0  0  0  0  0  0  0  0  0  0  0  0
   20.6424   72.8458   -7.9794 O   0  0  0  0  0  0  0  0  0  0  0  0
   19.2825   72.7850   -8.3686 C   0  0  0  0  0  0  0  0  0  0  0  0
   18.8831   70.4902   -7.7753 O   0  0  0  0  0  0  0  0  0  0  0  0
   17.7019   70.1818  -10.5141 O   0  0  0  0  0  0  0  0  0  0  0  0
   15.4911   70.4074   -8.9336 O   0  0  0  0  0  0  0  0  0  0  0  0
   17.6451   71.2983   -9.6260 C   0  0  1  0  0  0  0  0  0  0  0  0
   16.6859   71.0154   -8.4892 C   0  0  2  0  0  0  0  0  0  0  0  0
   18.9806   71.3899   -8.9006 C   0  0  1  0  0  0  0  0  0  0  0  0
   17.5115   70.1014   -7.5999 C   0  0  2  0  0  0  0  0  0  0  0  0
   16.8593   70.1028  -10.9890 H   0  0  0  0  0  0  0  0  0  0  0  0
   15.0016   71.0292   -9.4955 H   0  0  0  0  0  0  0  0  0  0  0  0
   16.5857   72.4829   -6.3966 O   0  0  0  0  0  0  0  0  0  0  0  0
   16.2097   70.4667   -2.2689 O   0  0  0  0  0  0  0  0  0  0  0  0
   17.1644   70.2268   -6.2126 N   0  0  0  0  0  0  0  0  0  0  0  0
   16.4003   71.4767   -4.3417 N   0  0  0  0  0  0  0  0  0  0  0  0
   16.7097   71.4681   -5.7082 C   0  0  0  0  0  0  0  0  0  0  0  0
   17.2739   69.1286   -5.3682 C   0  0  0  0  0  0  0  0  0  0  0  0
   16.9752   69.1521   -4.0679 C   0  0  0  0  0  0  0  0  0  0  0  0
   16.4937   70.4107   -3.4616 C   0  0  0  0  0  0  0  0  0  0  0  0
   16.0836   72.3304   -3.9672 H   0  0  0  0  0  0  0  0  0  0  0  0
   20.3121   72.6156   -5.4805 O   0  0  0  0  0  0  0  0  0  0  0  0
   19.8751   72.9030   -3.9507 P   0  0  2  0  0  0  0  0  0  0  0  0
   19.8694   71.4279   -3.2843 O   0  0  0  0  0  0  0  0  0  0  0  0
   18.5805   73.6502   -3.8101 O   0  0  0  0  0  0  0  0  0  0  0  0
   21.1494   73.6420   -3.2930 O   0  0  0  0  0  0  0  0  0  0  0  0
   20.5427   74.8552   -1.3516 O   0  0  0  0  0  0  0  0  0  0  0  0
   24.5123   75.9100   -1.7957 O   0  0  0  0  0  0  0  0  0  0  0  0
   22.7508   75.7598   -4.1214 O   0  0  0  0  0  0  0  0  0  0  0  0
   23.7302   74.0005    0.2519 O   0  0  0  0  0  0  0  0  0  0  0  0
   23.3736   75.0538   -1.8854 C   0  0  2  0  0  0  0  0  0  0  0  0
   22.3106   75.7067   -2.7694 C   0  0  2  0  0  0  0  0  0  0  0  0
   22.8308   74.8390   -0.4708 C   0  0  1  0  0  0  0  0  0  0  0  0
   20.9937   74.9320   -2.7044 C   0  0  1  0  0  0  0  0  0  0  0  0
   21.4576   74.1739   -0.4960 C   0  0  1  0  0  0  0  0  0  0  0  0
   24.8744   76.0609   -2.6831 H   0  0  0  0  0  0  0  0  0  0  0  0
   23.5862   76.2498   -4.1700 H   0  0  0  0  0  0  0  0  0  0  0  0
   24.6081   74.4123    0.2753 H   0  0  0  0  0  0  0  0  0  0  0  0
   19.7647   75.1434    0.8062 O   0  0  0  0  0  0  0  0  0  0  0  0
   21.1366   73.6407    1.8351 O   0  0  0  0  0  0  0  0  0  0  0  0
   20.7986   74.2667    0.8417 C   0  0  0  0  0  0  0  0  0  0  0  0
  1  4  1  0
  1 24  1  0
  1  2  1  6
  1  3  2  0
 25 28  1  0
 25 24  1  0
 25 26  1  1
 25 27  2  0
  6 11  1  0
  6 12  1  0
 29 36  1  0
 29 37  1  0
  9  7  1  6
  7 13  1  0
 10  8  1  6
  8 14  1  0
  4  5  1  0
 36 28  1  1
 33 30  1  1
 30 38  1  0
 34 31  1  6
 31 39  1  0
 35 32  1  1
 32 40  1  0
 41 43  1  0
 15 19  2  0
 42 43  2  0
 16 22  2  0
 12 17  1  1
 17 19  1  0
 17 20  1  0
 18 19  1  0
 18 22  1  0
 18 23  1  0
  9 10  1  0
  9 11  1  0
 10 12  1  0
 11  5  1  1
 33 34  1  0
 33 35  1  0
 34 36  1  0
 35 37  1  0
 37 43  1  1
 20 21  2  0
 21 22  1  0
M  CHG  3   2  -1  26  -1  41  -1
M  END
>  <COMPND>  (115) 
    udp_gluA.pdb 

>  <AUTHOR>  (115) 
    GENERATED BY OPEN BABEL 3.1.1

>  <MASTER>  (115) 
        0    0    0    0    0    0    0    0   56    0   56    0

>  <minimizedAffinity>  (115) 
-6.72637

>  <CNNscore>  (115) 
0.4751341641

>  <CNNaffinity>  (115) 
4.2635693550

>  <CNN_VS>  (115) 
2.0257675648

>  <CNNaffinity_variance>  (115) 
0.3353323042

$$$$
116
     RDKit          3D

 43 45  0  0  0  0  0  0  0  0999 V2000
   21.5517   71.6351   -2.4383 P   0  0  2  0  0  0  0  0  0  0  0  0
   22.9710   71.7779   -3.2026 O   0  0  0  0  0  0  0  0  0  0  0  0
   21.5136   70.5888   -1.3633 O   0  0  0  0  0  0  0  0  0  0  0  0
   20.4815   71.4497   -3.6376 O   0  0  0  0  0  0  0  0  0  0  0  0
   19.6054   70.3383   -3.5961 C   0  0  0  0  0  0  0  0  0  0  0  0
   17.7274   71.4665   -4.5850 O   0  0  0  0  0  0  0  0  0  0  0  0
   16.0864   70.2770   -2.3750 O   0  0  0  0  0  0  0  0  0  0  0  0
   15.5209   68.6424   -4.4832 O   0  0  0  0  0  0  0  0  0  0  0  0
   17.1929   69.7158   -3.0816 C   0  0  1  0  0  0  0  0  0  0  0  0
   16.7696   69.3022   -4.4752 C   0  0  2  0  0  0  0  0  0  0  0  0
   18.1837   70.8357   -3.3688 C   0  0  1  0  0  0  0  0  0  0  0  0
   16.7310   70.6358   -5.2019 C   0  0  2  0  0  0  0  0  0  0  0  0
   15.4397   69.5802   -2.1803 H   0  0  0  0  0  0  0  0  0  0  0  0
   15.5977   67.7992   -4.0088 H   0  0  0  0  0  0  0  0  0  0  0  0
   14.7963   70.2139   -7.2156 O   0  0  0  0  0  0  0  0  0  0  0  0
   17.9959   70.1564  -10.5327 O   0  0  0  0  0  0  0  0  0  0  0  0
   17.0309   70.5069   -6.5998 N   0  0  0  0  0  0  0  0  0  0  0  0
   16.3918   70.1846   -8.8657 N   0  0  0  0  0  0  0  0  0  0  0  0
   15.9852   70.2967   -7.5296 C   0  0  0  0  0  0  0  0  0  0  0  0
   18.3471   70.5905   -7.0374 C   0  0  0  0  0  0  0  0  0  0  0  0
   18.7192   70.4818   -8.3143 C   0  0  0  0  0  0  0  0  0  0  0  0
   17.6880   70.2602   -9.3492 C   0  0  0  0  0  0  0  0  0  0  0  0
   15.6817   70.0359   -9.5312 H   0  0  0  0  0  0  0  0  0  0  0  0
   21.2637   73.1401   -1.9237 O   0  0  0  0  0  0  0  0  0  0  0  0
   20.2583   74.2777   -2.4793 P   0  0  2  0  0  0  0  0  0  0  0  0
   20.6071   75.5619   -1.5576 O   0  0  0  0  0  0  0  0  0  0  0  0
   18.8105   73.8807   -2.4643 O   0  0  0  0  0  0  0  0  0  0  0  0
   20.8339   74.6554   -3.9383 O   0  0  0  0  0  0  0  0  0  0  0  0
   19.1341   74.6317   -5.5874 O   0  0  0  0  0  0  0  0  0  0  0  0
   22.5159   75.2638   -7.8748 O   0  0  0  0  0  0  0  0  0  0  0  0
   22.5506   73.3335   -5.6823 O   0  0  0  0  0  0  0  0  0  0  0  0
   20.6954   77.4621   -7.3234 O   0  0  0  0  0  0  0  0  0  0  0  0
   21.6934   75.3562   -6.7116 C   0  0  2  0  0  0  0  0  0  0  0  0
   21.3767   73.9522   -6.1959 C   0  0  2  0  0  0  0  0  0  0  0  0
   20.4044   76.0837   -7.1006 C   0  0  1  0  0  0  0  0  0  0  0  0
   20.3165   74.0001   -5.0948 C   0  0  1  0  0  0  0  0  0  0  0  0
   19.3519   75.9789   -6.0006 C   0  0  1  0  0  0  0  0  0  0  0  0
   23.3411   74.8049   -7.6518 H   0  0  0  0  0  0  0  0  0  0  0  0
   23.2277   73.3000   -6.3757 H   0  0  0  0  0  0  0  0  0  0  0  0
   21.3641   77.5427   -8.0213 H   0  0  0  0  0  0  0  0  0  0  0  0
   18.0096   77.7106   -6.8377 O   0  0  0  0  0  0  0  0  0  0  0  0
   17.0420   75.6576   -6.6190 O   0  0  0  0  0  0  0  0  0  0  0  0
   18.0100   76.3950   -6.5090 C   0  0  0  0  0  0  0  0  0  0  0  0
  1  4  1  0
  1 24  1  0
  1  2  1  6
  1  3  2  0
 25 28  1  0
 25 24  1  0
 25 26  1  1
 25 27  2  0
  6 11  1  0
  6 12  1  0
 29 36  1  0
 29 37  1  0
  9  7  1  1
  7 13  1  0
 10  8  1  1
  8 14  1  0
  4  5  1  0
 36 28  1  1
 33 30  1  6
 30 38  1  0
 34 31  1  1
 31 39  1  0
 35 32  1  1
 32 40  1  0
 41 43  1  0
 15 19  2  0
 42 43  2  0
 16 22  2  0
 12 17  1  6
 17 19  1  0
 17 20  1  0
 18 19  1  0
 18 22  1  0
 18 23  1  0
  9 10  1  0
  9 11  1  0
 10 12  1  0
 11  5  1  6
 33 34  1  0
 33 35  1  0
 34 36  1  0
 35 37  1  0
 37 43  1  6
 20 21  2  0
 21 22  1  0
M  CHG  3   2  -1  26  -1  41  -1
M  END
>  <COMPND>  (116) 
    udp_gluA.pdb 

>  <AUTHOR>  (116) 
    GENERATED BY OPEN BABEL 3.1.1

>  <MASTER>  (116) 
        0    0    0    0    0    0    0    0   56    0   56    0

>  <minimizedAffinity>  (116) 
-6.78963

>  <CNNscore>  (116) 
0.4602458179

>  <CNNaffinity>  (116) 
4.1357822418

>  <CNN_VS>  (116) 
1.9034764767

>  <CNNaffinity_variance>  (116) 
0.5323399901

$$$$
117
     RDKit          3D

 43 45  0  0  0  0  0  0  0  0999 V2000
   20.0057   73.0267   -3.6019 P   0  0  2  0  0  0  0  0  0  0  0  0
   18.8517   74.0483   -3.1085 O   0  0  0  0  0  0  0  0  0  0  0  0
   21.1025   73.6533   -4.4120 O   0  0  0  0  0  0  0  0  0  0  0  0
   19.1859   71.8371   -4.3306 O   0  0  0  0  0  0  0  0  0  0  0  0
   18.5646   70.8524   -3.5252 C   0  0  0  0  0  0  0  0  0  0  0  0
   16.6556   71.5546   -4.8059 O   0  0  0  0  0  0  0  0  0  0  0  0
   14.9850   70.2793   -2.6671 O   0  0  0  0  0  0  0  0  0  0  0  0
   14.9445   68.4078   -4.6500 O   0  0  0  0  0  0  0  0  0  0  0  0
   16.2432   69.8638   -3.1989 C   0  0  1  0  0  0  0  0  0  0  0  0
   16.0587   69.2728   -4.5805 C   0  0  2  0  0  0  0  0  0  0  0  0
   17.0639   71.1120   -3.4934 C   0  0  1  0  0  0  0  0  0  0  0  0
   15.8875   70.5168   -5.4355 C   0  0  2  0  0  0  0  0  0  0  0  0
   14.4428   69.4987   -2.4711 H   0  0  0  0  0  0  0  0  0  0  0  0
   15.1024   67.6315   -4.0893 H   0  0  0  0  0  0  0  0  0  0  0  0
   14.3571   71.0108   -7.7572 O   0  0  0  0  0  0  0  0  0  0  0  0
   17.8236   69.7664  -10.5282 O   0  0  0  0  0  0  0  0  0  0  0  0
   16.3654   70.3303   -6.7763 N   0  0  0  0  0  0  0  0  0  0  0  0
   16.0847   70.3896   -9.1351 N   0  0  0  0  0  0  0  0  0  0  0  0
   15.5158   70.6073   -7.8734 C   0  0  0  0  0  0  0  0  0  0  0  0
   17.6617   69.8798   -6.9942 C   0  0  0  0  0  0  0  0  0  0  0  0
   18.1900   69.6771   -8.2028 C   0  0  0  0  0  0  0  0  0  0  0  0
   17.3684   69.9419   -9.4021 C   0  0  0  0  0  0  0  0  0  0  0  0
   15.5117   70.5736   -9.9143 H   0  0  0  0  0  0  0  0  0  0  0  0
   20.4954   72.3391   -2.2234 O   0  0  0  0  0  0  0  0  0  0  0  0
   21.9020   71.6510   -1.8217 P   0  0  2  0  0  0  0  0  0  0  0  0
   22.7996   71.8381   -3.1557 O   0  0  0  0  0  0  0  0  0  0  0  0
   21.7806   70.2301   -1.3523 O   0  0  0  0  0  0  0  0  0  0  0  0
   22.5576   72.6579   -0.7453 O   0  0  0  0  0  0  0  0  0  0  0  0
   21.7386   74.1153    0.9324 O   0  0  0  0  0  0  0  0  0  0  0  0
   24.7342   76.3938   -0.7712 O   0  0  0  0  0  0  0  0  0  0  0  0
   22.9316   74.8234   -2.4502 O   0  0  0  0  0  0  0  0  0  0  0  0
   25.1556   75.1237    1.8095 O   0  0  0  0  0  0  0  0  0  0  0  0
   24.0913   75.1905   -0.3510 C   0  0  2  0  0  0  0  0  0  0  0  0
   22.7430   75.0564   -1.0592 C   0  0  2  0  0  0  0  0  0  0  0  0
   23.8914   75.2654    1.1644 C   0  0  1  0  0  0  0  0  0  0  0  0
   21.9263   73.9066   -0.4679 C   0  0  1  0  0  0  0  0  0  0  0  0
   22.9644   74.1590    1.6594 C   0  0  1  0  0  0  0  0  0  0  0  0
   24.8717   76.3689   -1.7313 H   0  0  0  0  0  0  0  0  0  0  0  0
   23.4494   75.5491   -2.8319 H   0  0  0  0  0  0  0  0  0  0  0  0
   25.7551   75.8218    1.5030 H   0  0  0  0  0  0  0  0  0  0  0  0
   23.4604   74.0387    3.9487 O   0  0  0  0  0  0  0  0  0  0  0  0
   21.4465   74.9355    3.3665 O   0  0  0  0  0  0  0  0  0  0  0  0
   22.5152   74.4297    3.0584 C   0  0  0  0  0  0  0  0  0  0  0  0
  1  4  1  0
  1 24  1  0
  1  2  1  1
  1  3  2  0
 25 28  1  0
 25 24  1  0
 25 26  1  6
 25 27  2  0
  6 11  1  0
  6 12  1  0
 29 36  1  0
 29 37  1  0
  9  7  1  6
  7 13  1  0
 10  8  1  1
  8 14  1  0
  4  5  1  0
 36 28  1  1
 33 30  1  6
 30 38  1  0
 34 31  1  6
 31 39  1  0
 35 32  1  1
 32 40  1  0
 41 43  1  0
 15 19  2  0
 42 43  2  0
 16 22  2  0
 12 17  1  6
 17 19  1  0
 17 20  1  0
 18 19  1  0
 18 22  1  0
 18 23  1  0
  9 10  1  0
  9 11  1  0
 10 12  1  0
 11  5  1  6
 33 34  1  0
 33 35  1  0
 34 36  1  0
 35 37  1  0
 37 43  1  1
 20 21  2  0
 21 22  1  0
M  CHG  3   2  -1  26  -1  41  -1
M  END
>  <COMPND>  (117) 
    udp_gluA.pdb 

>  <AUTHOR>  (117) 
    GENERATED BY OPEN BABEL 3.1.1

>  <MASTER>  (117) 
        0    0    0    0    0    0    0    0   56    0   56    0

>  <minimizedAffinity>  (117) 
-7.41416

>  <CNNscore>  (117) 
0.4583617151

>  <CNNaffinity>  (117) 
4.2449769974

>  <CNN_VS>  (117) 
1.9457349777

>  <CNNaffinity_variance>  (117) 
0.1009243354

$$$$
118
     RDKit          3D

 43 45  0  0  0  0  0  0  0  0999 V2000
   19.7963   72.6068   -5.0080 P   0  0  2  0  0  0  0  0  0  0  0  0
   18.3775   73.3269   -4.7123 O   0  0  0  0  0  0  0  0  0  0  0  0
   20.9213   73.5395   -5.3486 O   0  0  0  0  0  0  0  0  0  0  0  0
   19.4415   71.4950   -6.1287 O   0  0  0  0  0  0  0  0  0  0  0  0
   18.6341   71.8762   -7.2274 C   0  0  0  0  0  0  0  0  0  0  0  0
   17.5928   69.7338   -6.9056 O   0  0  0  0  0  0  0  0  0  0  0  0
   16.9077   69.8365   -9.8231 O   0  0  0  0  0  0  0  0  0  0  0  0
   14.5592   70.5485   -8.6342 O   0  0  0  0  0  0  0  0  0  0  0  0
   16.9543   70.8967   -8.8680 C   0  0  1  0  0  0  0  0  0  0  0  0
   15.7595   70.8201   -7.9412 C   0  0  2  0  0  0  0  0  0  0  0  0
   18.1123   70.6228   -7.9181 C   0  0  1  0  0  0  0  0  0  0  0  0
   16.1601   69.6949   -7.0024 C   0  0  2  0  0  0  0  0  0  0  0  0
   16.1754   69.9895  -10.4411 H   0  0  0  0  0  0  0  0  0  0  0  0
   14.3472   71.2942   -9.2181 H   0  0  0  0  0  0  0  0  0  0  0  0
   13.6395   68.6920   -6.2168 O   0  0  0  0  0  0  0  0  0  0  0  0
   14.1086   70.3500   -1.9418 O   0  0  0  0  0  0  0  0  0  0  0  0
   15.5991   69.8502   -5.6902 N   0  0  0  0  0  0  0  0  0  0  0  0
   13.8751   69.5196   -4.0886 N   0  0  0  0  0  0  0  0  0  0  0  0
   14.3249   69.3083   -5.3986 C   0  0  0  0  0  0  0  0  0  0  0  0
   16.3090   70.5308   -4.7084 C   0  0  0  0  0  0  0  0  0  0  0  0
   15.8672   70.7241   -3.4642 C   0  0  0  0  0  0  0  0  0  0  0  0
   14.5445   70.1904   -3.0779 C   0  0  0  0  0  0  0  0  0  0  0  0
   12.9897   69.1533   -3.8626 H   0  0  0  0  0  0  0  0  0  0  0  0
   20.0367   71.7190   -3.6787 O   0  0  0  0  0  0  0  0  0  0  0  0
   21.2450   71.7218   -2.6047 P   0  0  2  0  0  0  0  0  0  0  0  0
   22.5682   71.6863   -3.5365 O   0  0  0  0  0  0  0  0  0  0  0  0
   21.1717   70.6155   -1.5924 O   0  0  0  0  0  0  0  0  0  0  0  0
   21.2299   73.2071   -1.9754 O   0  0  0  0  0  0  0  0  0  0  0  0
   21.2207   73.4152    0.3838 O   0  0  0  0  0  0  0  0  0  0  0  0
   20.1610   77.2286   -0.8006 O   0  0  0  0  0  0  0  0  0  0  0  0
   19.0237   74.8932   -2.1372 O   0  0  0  0  0  0  0  0  0  0  0  0
   22.8518   76.6942    0.1613 O   0  0  0  0  0  0  0  0  0  0  0  0
   20.8191   75.9663   -0.9080 C   0  0  2  0  0  0  0  0  0  0  0  0
   19.7781   74.8468   -0.9316 C   0  0  2  0  0  0  0  0  0  0  0  0
   21.7419   75.8095    0.3027 C   0  0  1  0  0  0  0  0  0  0  0  0
   20.4460   73.4761   -0.8144 C   0  0  1  0  0  0  0  0  0  0  0  0
   22.2680   74.3820    0.4210 C   0  0  1  0  0  0  0  0  0  0  0  0
   19.5689   77.3504   -1.5594 H   0  0  0  0  0  0  0  0  0  0  0  0
   18.5973   75.7604   -2.2182 H   0  0  0  0  0  0  0  0  0  0  0  0
   22.5306   77.6063    0.0848 H   0  0  0  0  0  0  0  0  0  0  0  0
   24.1682   73.7289    1.6310 O   0  0  0  0  0  0  0  0  0  0  0  0
   22.3251   74.3275    2.8325 O   0  0  0  0  0  0  0  0  0  0  0  0
   22.8873   74.1543    1.7615 C   0  0  0  0  0  0  0  0  0  0  0  0
  1  4  1  0
  1 24  1  0
  1  2  1  1
  1  3  2  0
 25 28  1  0
 25 24  1  0
 25 26  1  6
 25 27  2  0
  6 11  1  0
  6 12  1  0
 29 36  1  0
 29 37  1  0
  9  7  1  6
  7 13  1  0
 10  8  1  6
  8 14  1  0
  4  5  1  0
 36 28  1  6
 33 30  1  1
 30 38  1  0
 34 31  1  6
 31 39  1  0
 35 32  1  6
 32 40  1  0
 41 43  1  0
 15 19  2  0
 42 43  2  0
 16 22  2  0
 12 17  1  1
 17 19  1  0
 17 20  1  0
 18 19  1  0
 18 22  1  0
 18 23  1  0
  9 10  1  0
  9 11  1  0
 10 12  1  0
 11  5  1  1
 33 34  1  0
 33 35  1  0
 34 36  1  0
 35 37  1  0
 37 43  1  1
 20 21  2  0
 21 22  1  0
M  CHG  3   2  -1  26  -1  41  -1
M  END
>  <COMPND>  (118) 
    udp_gluA.pdb 

>  <AUTHOR>  (118) 
    GENERATED BY OPEN BABEL 3.1.1

>  <MASTER>  (118) 
        0    0    0    0    0    0    0    0   56    0   56    0

>  <minimizedAffinity>  (118) 
-7.04645

>  <CNNscore>  (118) 
0.4382222891

>  <CNNaffinity>  (118) 
4.2151269913

>  <CNN_VS>  (118) 
1.8471626043

>  <CNNaffinity_variance>  (118) 
0.0944860429

$$$$
119
     RDKit          3D

 43 45  0  0  0  0  0  0  0  0999 V2000
   21.0283   71.2915   -2.0583 P   0  0  2  0  0  0  0  0  0  0  0  0
   22.2264   70.5304   -1.2810 O   0  0  0  0  0  0  0  0  0  0  0  0
   20.2868   72.3073   -1.2397 O   0  0  0  0  0  0  0  0  0  0  0  0
   20.1324   70.0882   -2.6646 O   0  0  0  0  0  0  0  0  0  0  0  0
   19.4952   70.2829   -3.9138 C   0  0  0  0  0  0  0  0  0  0  0  0
   17.5742   71.3251   -4.9144 O   0  0  0  0  0  0  0  0  0  0  0  0
   16.0172   70.2696   -2.5793 O   0  0  0  0  0  0  0  0  0  0  0  0
   15.4048   68.4933   -4.5556 O   0  0  0  0  0  0  0  0  0  0  0  0
   17.1074   69.6732   -3.2823 C   0  0  1  0  0  0  0  0  0  0  0  0
   16.6454   69.1639   -4.6311 C   0  0  2  0  0  0  0  0  0  0  0  0
   18.0757   70.7808   -3.6744 C   0  0  1  0  0  0  0  0  0  0  0  0
   16.5687   70.4458   -5.4428 C   0  0  2  0  0  0  0  0  0  0  0  0
   15.3850   69.5812   -2.3183 H   0  0  0  0  0  0  0  0  0  0  0  0
   15.5062   67.6842   -4.0291 H   0  0  0  0  0  0  0  0  0  0  0  0
   14.8520   71.2685   -7.5291 O   0  0  0  0  0  0  0  0  0  0  0  0
   17.6571   69.5536  -10.7595 O   0  0  0  0  0  0  0  0  0  0  0  0
   16.8261   70.2272   -6.8381 N   0  0  0  0  0  0  0  0  0  0  0  0
   16.2503   70.4127   -9.1360 N   0  0  0  0  0  0  0  0  0  0  0  0
   15.8989   70.6801   -7.8063 C   0  0  0  0  0  0  0  0  0  0  0  0
   17.9858   69.5728   -7.2352 C   0  0  0  0  0  0  0  0  0  0  0  0
   18.3070   69.3252   -8.5066 C   0  0  0  0  0  0  0  0  0  0  0  0
   17.3917   69.7649   -9.5800 C   0  0  0  0  0  0  0  0  0  0  0  0
   15.6193   70.7167   -9.8279 H   0  0  0  0  0  0  0  0  0  0  0  0
   21.7664   71.8895   -3.3661 O   0  0  0  0  0  0  0  0  0  0  0  0
   21.8650   73.4010   -3.9313 P   0  0  2  0  0  0  0  0  0  0  0  0
   23.0714   73.3156   -5.0072 O   0  0  0  0  0  0  0  0  0  0  0  0
   22.0565   74.4444   -2.8689 O   0  0  0  0  0  0  0  0  0  0  0  0
   20.5353   73.5914   -4.8247 O   0  0  0  0  0  0  0  0  0  0  0  0
   20.1746   74.0778   -7.1143 O   0  0  0  0  0  0  0  0  0  0  0  0
   17.1306   76.2116   -5.3118 O   0  0  0  0  0  0  0  0  0  0  0  0
   19.8126   76.1920   -4.1537 O   0  0  0  0  0  0  0  0  0  0  0  0
   16.5491   73.7148   -6.6824 O   0  0  0  0  0  0  0  0  0  0  0  0
   18.0597   75.1377   -5.4583 C   0  0  2  0  0  0  0  0  0  0  0  0
   19.4857   75.6891   -5.4440 C   0  0  2  0  0  0  0  0  0  0  0  0
   17.7717   74.4416   -6.7904 C   0  0  1  0  0  0  0  0  0  0  0  0
   20.4950   74.6058   -5.8267 C   0  0  1  0  0  0  0  0  0  0  0  0
   18.8864   73.4684   -7.1629 C   0  0  1  0  0  0  0  0  0  0  0  0
   17.2946   76.6690   -4.4720 H   0  0  0  0  0  0  0  0  0  0  0  0
   19.1759   76.8797   -3.9043 H   0  0  0  0  0  0  0  0  0  0  0  0
   15.8314   74.3227   -6.4455 H   0  0  0  0  0  0  0  0  0  0  0  0
   19.8982   72.4203   -9.0012 O   0  0  0  0  0  0  0  0  0  0  0  0
   17.7903   73.2368   -9.2998 O   0  0  0  0  0  0  0  0  0  0  0  0
   18.7679   73.0478   -8.5916 C   0  0  0  0  0  0  0  0  0  0  0  0
  1  4  1  0
  1 24  1  0
  1  2  1  1
  1  3  2  0
 25 28  1  0
 25 24  1  0
 25 26  1  6
 25 27  2  0
  6 11  1  0
  6 12  1  0
 29 36  1  0
 29 37  1  0
  9  7  1  1
  7 13  1  0
 10  8  1  1
  8 14  1  0
  4  5  1  0
 36 28  1  1
 33 30  1  6
 30 38  1  0
 34 31  1  1
 31 39  1  0
 35 32  1  1
 32 40  1  0
 41 43  1  0
 15 19  2  0
 42 43  2  0
 16 22  2  0
 12 17  1  6
 17 19  1  0
 17 20  1  0
 18 19  1  0
 18 22  1  0
 18 23  1  0
  9 10  1  0
  9 11  1  0
 10 12  1  0
 11  5  1  6
 33 34  1  0
 33 35  1  0
 34 36  1  0
 35 37  1  0
 37 43  1  6
 20 21  2  0
 21 22  1  0
M  CHG  3   2  -1  26  -1  41  -1
M  END
>  <COMPND>  (119) 
    udp_gluA.pdb 

>  <AUTHOR>  (119) 
    GENERATED BY OPEN BABEL 3.1.1

>  <MASTER>  (119) 
        0    0    0    0    0    0    0    0   56    0   56    0

>  <minimizedAffinity>  (119) 
-7.38528

>  <CNNscore>  (119) 
0.4180472493

>  <CNNaffinity>  (119) 
3.9725048542

>  <CNN_VS>  (119) 
1.6606947184

>  <CNNaffinity_variance>  (119) 
0.8542345166

$$$$
120
     RDKit          3D

 43 45  0  0  0  0  0  0  0  0999 V2000
   21.1805   71.8214   -2.7655 P   0  0  2  0  0  0  0  0  0  0  0  0
   22.6880   71.8211   -3.3540 O   0  0  0  0  0  0  0  0  0  0  0  0
   20.9955   71.0415   -1.4969 O   0  0  0  0  0  0  0  0  0  0  0  0
   20.2738   71.3487   -4.0194 O   0  0  0  0  0  0  0  0  0  0  0  0
   19.4147   70.2360   -3.8512 C   0  0  0  0  0  0  0  0  0  0  0  0
   17.5193   71.3065   -4.8707 O   0  0  0  0  0  0  0  0  0  0  0  0
   15.9098   70.2135   -2.5890 O   0  0  0  0  0  0  0  0  0  0  0  0
   15.3306   68.4787   -4.6116 O   0  0  0  0  0  0  0  0  0  0  0  0
   17.0117   69.6256   -3.2808 C   0  0  1  0  0  0  0  0  0  0  0  0
   16.5754   69.1447   -4.6486 C   0  0  2  0  0  0  0  0  0  0  0  0
   17.9927   70.7360   -3.6314 C   0  0  1  0  0  0  0  0  0  0  0  0
   16.5211   70.4424   -5.4366 C   0  0  2  0  0  0  0  0  0  0  0  0
   15.2693   69.5232   -2.3545 H   0  0  0  0  0  0  0  0  0  0  0  0
   15.4176   67.6591   -4.0990 H   0  0  0  0  0  0  0  0  0  0  0  0
   14.7499   71.1069   -7.5337 O   0  0  0  0  0  0  0  0  0  0  0  0
   17.7205   69.6586  -10.7464 O   0  0  0  0  0  0  0  0  0  0  0  0
   16.8063   70.2496   -6.8303 N   0  0  0  0  0  0  0  0  0  0  0  0
   16.2307   70.3840   -9.1318 N   0  0  0  0  0  0  0  0  0  0  0  0
   15.8479   70.6169   -7.8043 C   0  0  0  0  0  0  0  0  0  0  0  0
   18.0234   69.7042   -7.2202 C   0  0  0  0  0  0  0  0  0  0  0  0
   18.3741   69.4882   -8.4895 C   0  0  0  0  0  0  0  0  0  0  0  0
   17.4293   69.8435   -9.5686 C   0  0  0  0  0  0  0  0  0  0  0  0
   15.5790   70.6298   -9.8276 H   0  0  0  0  0  0  0  0  0  0  0  0
   20.8389   73.3966   -2.6434 O   0  0  0  0  0  0  0  0  0  0  0  0
   19.4245   74.1795   -2.6489 P   0  0  2  0  0  0  0  0  0  0  0  0
   19.8446   75.7047   -2.3060 O   0  0  0  0  0  0  0  0  0  0  0  0
   18.3954   73.5985   -1.7229 O   0  0  0  0  0  0  0  0  0  0  0  0
   18.9838   74.2175   -4.2003 O   0  0  0  0  0  0  0  0  0  0  0  0
   20.5272   74.5173   -5.9715 O   0  0  0  0  0  0  0  0  0  0  0  0
   16.9822   75.6929   -7.7375 O   0  0  0  0  0  0  0  0  0  0  0  0
   17.6132   76.5011   -5.0020 O   0  0  0  0  0  0  0  0  0  0  0  0
   18.1397   73.1027   -8.3717 O   0  0  0  0  0  0  0  0  0  0  0  0
   17.8091   74.9408   -6.8495 C   0  0  2  0  0  0  0  0  0  0  0  0
   18.5356   75.8917   -5.8979 C   0  0  2  0  0  0  0  0  0  0  0  0
   18.8181   74.1575   -7.6922 C   0  0  1  0  0  0  0  0  0  0  0  0
   19.5992   75.1487   -5.0884 C   0  0  1  0  0  0  0  0  0  0  0  0
   19.9171   73.5511   -6.8244 C   0  0  1  0  0  0  0  0  0  0  0  0
   16.3329   76.1991   -7.2243 H   0  0  0  0  0  0  0  0  0  0  0  0
   16.9353   76.9742   -5.5089 H   0  0  0  0  0  0  0  0  0  0  0  0
   17.4374   73.4752   -8.9275 H   0  0  0  0  0  0  0  0  0  0  0  0
   20.6479   72.1196   -8.5326 O   0  0  0  0  0  0  0  0  0  0  0  0
   22.2038   73.4955   -7.5919 O   0  0  0  0  0  0  0  0  0  0  0  0
   21.0576   73.0788   -7.6660 C   0  0  0  0  0  0  0  0  0  0  0  0
  1  4  1  0
  1 24  1  0
  1  2  1  6
  1  3  2  0
 25 28  1  0
 25 24  1  0
 25 26  1  1
 25 27  2  0
  6 11  1  0
  6 12  1  0
 29 36  1  0
 29 37  1  0
  9  7  1  1
  7 13  1  0
 10  8  1  1
  8 14  1  0
  4  5  1  0
 36 28  1  6
 33 30  1  6
 30 38  1  0
 34 31  1  1
 31 39  1  0
 35 32  1  1
 32 40  1  0
 41 43  1  0
 15 19  2  0
 42 43  2  0
 16 22  2  0
 12 17  1  6
 17 19  1  0
 17 20  1  0
 18 19  1  0
 18 22  1  0
 18 23  1  0
  9 10  1  0
  9 11  1  0
 10 12  1  0
 11  5  1  6
 33 34  1  0
 33 35  1  0
 34 36  1  0
 35 37  1  0
 37 43  1  6
 20 21  2  0
 21 22  1  0
M  CHG  3   2  -1  26  -1  41  -1
M  END
>  <COMPND>  (120) 
    udp_gluA.pdb 

>  <AUTHOR>  (120) 
    GENERATED BY OPEN BABEL 3.1.1

>  <MASTER>  (120) 
        0    0    0    0    0    0    0    0   56    0   56    0

>  <minimizedAffinity>  (120) 
-6.84863

>  <CNNscore>  (120) 
0.4156050682

>  <CNNaffinity>  (120) 
3.9561321735

>  <CNN_VS>  (120) 
1.6441885233

>  <CNNaffinity_variance>  (120) 
0.9095841646

$$$$
121
     RDKit          3D

 43 45  0  0  0  0  0  0  0  0999 V2000
   18.7525   73.9057   -7.7517 P   0  0  2  0  0  0  0  0  0  0  0  0
   17.2705   73.6913   -7.1379 O   0  0  0  0  0  0  0  0  0  0  0  0
   19.0530   75.3032   -8.2083 O   0  0  0  0  0  0  0  0  0  0  0  0
   18.8746   72.7554   -8.8830 O   0  0  0  0  0  0  0  0  0  0  0  0
   19.6708   71.6177   -8.6072 C   0  0  0  0  0  0  0  0  0  0  0  0
   18.7982   69.4606   -8.0047 O   0  0  0  0  0  0  0  0  0  0  0  0
   17.1834   69.6160  -10.5265 O   0  0  0  0  0  0  0  0  0  0  0  0
   15.3618   70.2841   -8.6104 O   0  0  0  0  0  0  0  0  0  0  0  0
   17.5430   70.6572   -9.6182 C   0  0  1  0  0  0  0  0  0  0  0  0
   16.7237   70.5519   -8.3493 C   0  0  2  0  0  0  0  0  0  0  0  0
   18.9510   70.3740   -9.1127 C   0  0  1  0  0  0  0  0  0  0  0  0
   17.4148   69.4115   -7.6214 C   0  0  2  0  0  0  0  0  0  0  0  0
   16.2872   69.7752  -10.8629 H   0  0  0  0  0  0  0  0  0  0  0  0
   14.9670   71.0396   -9.0745 H   0  0  0  0  0  0  0  0  0  0  0  0
   15.1198   68.7571   -6.1110 O   0  0  0  0  0  0  0  0  0  0  0  0
   17.1680   69.9278   -2.1514 O   0  0  0  0  0  0  0  0  0  0  0  0
   17.3210   69.5357   -6.1943 N   0  0  0  0  0  0  0  0  0  0  0  0
   16.1417   69.3417   -4.1405 N   0  0  0  0  0  0  0  0  0  0  0  0
   16.1222   69.1800   -5.5321 C   0  0  0  0  0  0  0  0  0  0  0  0
   18.4081   70.0032   -5.4658 C   0  0  0  0  0  0  0  0  0  0  0  0
   18.4117   70.1519   -4.1397 C   0  0  0  0  0  0  0  0  0  0  0  0
   17.1981   69.8035   -3.3721 C   0  0  0  0  0  0  0  0  0  0  0  0
   15.3177   69.1025   -3.6577 H   0  0  0  0  0  0  0  0  0  0  0  0
   19.7156   73.3605   -6.5736 O   0  0  0  0  0  0  0  0  0  0  0  0
   21.1587   73.8761   -6.0584 P   0  0  2  0  0  0  0  0  0  0  0  0
   20.9103   75.4510   -5.7783 O   0  0  0  0  0  0  0  0  0  0  0  0
   22.2892   73.5868   -7.0030 O   0  0  0  0  0  0  0  0  0  0  0  0
   21.3271   73.2235   -4.5928 O   0  0  0  0  0  0  0  0  0  0  0  0
   23.5770   73.7789   -4.1043 O   0  0  0  0  0  0  0  0  0  0  0  0
   22.2366   72.4063   -0.4455 O   0  0  0  0  0  0  0  0  0  0  0  0
   21.5012   71.0173   -2.9080 O   0  0  0  0  0  0  0  0  0  0  0  0
   22.5792   75.2574   -0.8980 O   0  0  0  0  0  0  0  0  0  0  0  0
   22.1252   73.0387   -1.7204 C   0  0  2  0  0  0  0  0  0  0  0  0
   22.4865   72.0401   -2.8204 C   0  0  2  0  0  0  0  0  0  0  0  0
   23.0880   74.2280   -1.7441 C   0  0  1  0  0  0  0  0  0  0  0  0
   22.6020   72.7379   -4.1763 C   0  0  1  0  0  0  0  0  0  0  0  0
   23.2455   74.7892   -3.1544 C   0  0  1  0  0  0  0  0  0  0  0  0
   21.6336   71.6472   -0.4071 H   0  0  0  0  0  0  0  0  0  0  0  0
   21.4225   70.5705   -2.0510 H   0  0  0  0  0  0  0  0  0  0  0  0
   22.4741   74.9131    0.0027 H   0  0  0  0  0  0  0  0  0  0  0  0
   25.2779   75.3214   -4.1974 O   0  0  0  0  0  0  0  0  0  0  0  0
   24.5777   76.6984   -2.5203 O   0  0  0  0  0  0  0  0  0  0  0  0
   24.4149   75.7163   -3.2288 C   0  0  0  0  0  0  0  0  0  0  0  0
  1  4  1  0
  1 24  1  0
  1  2  1  1
  1  3  2  0
 25 28  1  0
 25 24  1  0
 25 26  1  1
 25 27  2  0
  6 11  1  0
  6 12  1  0
 29 36  1  0
 29 37  1  0
  9  7  1  6
  7 13  1  0
 10  8  1  6
  8 14  1  0
  4  5  1  0
 36 28  1  1
 33 30  1  1
 30 38  1  0
 34 31  1  6
 31 39  1  0
 35 32  1  1
 32 40  1  0
 41 43  1  0
 15 19  2  0
 42 43  2  0
 16 22  2  0
 12 17  1  1
 17 19  1  0
 17 20  1  0
 18 19  1  0
 18 22  1  0
 18 23  1  0
  9 10  1  0
  9 11  1  0
 10 12  1  0
 11  5  1  1
 33 34  1  0
 33 35  1  0
 34 36  1  0
 35 37  1  0
 37 43  1  1
 20 21  2  0
 21 22  1  0
M  CHG  3   2  -1  26  -1  41  -1
M  END
>  <COMPND>  (121) 
    udp_gluA.pdb 

>  <AUTHOR>  (121) 
    GENERATED BY OPEN BABEL 3.1.1

>  <MASTER>  (121) 
        0    0    0    0    0    0    0    0   56    0   56    0

>  <minimizedAffinity>  (121) 
-8.14952

>  <CNNscore>  (121) 
0.8101301789

>  <CNNaffinity>  (121) 
4.6715102196

>  <CNN_VS>  (121) 
3.7845313549

>  <CNNaffinity_variance>  (121) 
0.3872728646

$$$$
122
     RDKit          3D

 43 45  0  0  0  0  0  0  0  0999 V2000
   19.9960   70.5614   -2.9288 P   0  0  2  0  0  0  0  0  0  0  0  0
   19.8079   71.4853   -4.2441 O   0  0  0  0  0  0  0  0  0  0  0  0
   20.9306   69.3998   -3.0990 O   0  0  0  0  0  0  0  0  0  0  0  0
   18.4822   70.1878   -2.4967 O   0  0  0  0  0  0  0  0  0  0  0  0
   17.6328   69.5892   -3.4584 C   0  0  0  0  0  0  0  0  0  0  0  0
   16.5316   71.2151   -4.8445 O   0  0  0  0  0  0  0  0  0  0  0  0
   14.0124   70.4655   -3.4011 O   0  0  0  0  0  0  0  0  0  0  0  0
   13.7795   69.1042   -5.7524 O   0  0  0  0  0  0  0  0  0  0  0  0
   15.1109   69.6403   -3.7897 C   0  0  1  0  0  0  0  0  0  0  0  0
   15.0795   69.3951   -5.2835 C   0  0  2  0  0  0  0  0  0  0  0  0
   16.3888   70.4520   -3.6269 C   0  0  1  0  0  0  0  0  0  0  0  0
   15.6184   70.7063   -5.8297 C   0  0  2  0  0  0  0  0  0  0  0  0
   13.1845   69.9684   -3.4966 H   0  0  0  0  0  0  0  0  0  0  0  0
   13.4815   68.2604   -5.3767 H   0  0  0  0  0  0  0  0  0  0  0  0
   14.3674   70.5475   -8.3568 O   0  0  0  0  0  0  0  0  0  0  0  0
   18.4034   70.0530  -10.5270 O   0  0  0  0  0  0  0  0  0  0  0  0
   16.3183   70.5361   -7.0715 N   0  0  0  0  0  0  0  0  0  0  0  0
   16.3787   70.3004   -9.4352 N   0  0  0  0  0  0  0  0  0  0  0  0
   15.5952   70.4682   -8.2858 C   0  0  0  0  0  0  0  0  0  0  0  0
   17.7046   70.4402   -7.0787 C   0  0  0  0  0  0  0  0  0  0  0  0
   18.4376   70.2805   -8.1824 C   0  0  0  0  0  0  0  0  0  0  0  0
   17.7593   70.1992   -9.4926 C   0  0  0  0  0  0  0  0  0  0  0  0
   15.8974   70.2483  -10.2925 H   0  0  0  0  0  0  0  0  0  0  0  0
   20.4442   71.6263   -1.7984 O   0  0  0  0  0  0  0  0  0  0  0  0
   21.8411   72.4078   -1.5707 P   0  0  2  0  0  0  0  0  0  0  0  0
   22.9517   71.3170   -2.0144 O   0  0  0  0  0  0  0  0  0  0  0  0
   22.0252   72.9480   -0.1821 O   0  0  0  0  0  0  0  0  0  0  0  0
   21.8796   73.5246   -2.7341 O   0  0  0  0  0  0  0  0  0  0  0  0
   22.6760   73.2571   -4.9485 O   0  0  0  0  0  0  0  0  0  0  0  0
   23.3190   77.2871   -4.3050 O   0  0  0  0  0  0  0  0  0  0  0  0
   23.9228   75.3387   -2.2137 O   0  0  0  0  0  0  0  0  0  0  0  0
   21.0969   76.4102   -5.9616 O   0  0  0  0  0  0  0  0  0  0  0  0
   22.6500   76.0345   -4.1584 C   0  0  2  0  0  0  0  0  0  0  0  0
   23.6125   75.0070   -3.5621 C   0  0  2  0  0  0  0  0  0  0  0  0
   22.1816   75.5836   -5.5438 C   0  0  1  0  0  0  0  0  0  0  0  0
   23.0081   73.6028   -3.6032 C   0  0  1  0  0  0  0  0  0  0  0  0
   21.7107   74.1322   -5.5276 C   0  0  1  0  0  0  0  0  0  0  0  0
   23.6257   77.5935   -3.4370 H   0  0  0  0  0  0  0  0  0  0  0  0
   24.3065   76.2286   -2.1801 H   0  0  0  0  0  0  0  0  0  0  0  0
   21.3834   77.3368   -5.9761 H   0  0  0  0  0  0  0  0  0  0  0  0
   20.3216   73.1179   -7.1223 O   0  0  0  0  0  0  0  0  0  0  0  0
   22.4543   73.6087   -7.7624 O   0  0  0  0  0  0  0  0  0  0  0  0
   21.5709   73.6043   -6.9183 C   0  0  0  0  0  0  0  0  0  0  0  0
  1  4  1  0
  1 24  1  0
  1  2  1  6
  1  3  2  0
 25 28  1  0
 25 24  1  0
 25 26  1  6
 25 27  2  0
  6 11  1  0
  6 12  1  0
 29 36  1  0
 29 37  1  0
  9  7  1  6
  7 13  1  0
 10  8  1  6
  8 14  1  0
  4  5  1  0
 36 28  1  1
 33 30  1  6
 30 38  1  0
 34 31  1  1
 31 39  1  0
 35 32  1  1
 32 40  1  0
 41 43  1  0
 15 19  2  0
 42 43  2  0
 16 22  2  0
 12 17  1  6
 17 19  1  0
 17 20  1  0
 18 19  1  0
 18 22  1  0
 18 23  1  0
  9 10  1  0
  9 11  1  0
 10 12  1  0
 11  5  1  6
 33 34  1  0
 33 35  1  0
 34 36  1  0
 35 37  1  0
 37 43  1  6
 20 21  2  0
 21 22  1  0
M  CHG  3   2  -1  26  -1  41  -1
M  END
>  <COMPND>  (122) 
    udp_gluA.pdb 

>  <AUTHOR>  (122) 
    GENERATED BY OPEN BABEL 3.1.1

>  <MASTER>  (122) 
        0    0    0    0    0    0    0    0   56    0   56    0

>  <minimizedAffinity>  (122) 
-7.87702

>  <CNNscore>  (122) 
0.7308912873

>  <CNNaffinity>  (122) 
4.6187543869

>  <CNN_VS>  (122) 
3.3758072853

>  <CNNaffinity_variance>  (122) 
0.1446388364

$$$$
123
     RDKit          3D

 43 45  0  0  0  0  0  0  0  0999 V2000
   20.2938   70.8391   -2.8624 P   0  0  2  0  0  0  0  0  0  0  0  0
   20.3032   69.4211   -3.6423 O   0  0  0  0  0  0  0  0  0  0  0  0
   21.0633   70.8587   -1.5743 O   0  0  0  0  0  0  0  0  0  0  0  0
   18.7229   71.2093   -2.7482 O   0  0  0  0  0  0  0  0  0  0  0  0
   17.7734   70.2942   -3.2636 C   0  0  0  0  0  0  0  0  0  0  0  0
   16.5052   71.6449   -4.7950 O   0  0  0  0  0  0  0  0  0  0  0  0
   14.0924   70.8637   -3.1951 O   0  0  0  0  0  0  0  0  0  0  0  0
   13.9288   69.2171   -5.3625 O   0  0  0  0  0  0  0  0  0  0  0  0
   15.2501   70.0934   -3.5190 C   0  0  1  0  0  0  0  0  0  0  0  0
   15.2082   69.6701   -4.9720 C   0  0  2  0  0  0  0  0  0  0  0  0
   16.4555   71.0231   -3.4926 C   0  0  1  0  0  0  0  0  0  0  0  0
   15.6190   70.9473   -5.6846 C   0  0  2  0  0  0  0  0  0  0  0  0
   13.3092   70.2910   -3.2056 H   0  0  0  0  0  0  0  0  0  0  0  0
   13.7137   68.4020   -4.8815 H   0  0  0  0  0  0  0  0  0  0  0  0
   14.3331   70.4950   -8.1581 O   0  0  0  0  0  0  0  0  0  0  0  0
   18.3494   69.9694  -10.3575 O   0  0  0  0  0  0  0  0  0  0  0  0
   16.3044   70.6898   -6.9194 N   0  0  0  0  0  0  0  0  0  0  0  0
   16.3346   70.2327   -9.2510 N   0  0  0  0  0  0  0  0  0  0  0  0
   15.5643   70.4756   -8.1062 C   0  0  0  0  0  0  0  0  0  0  0  0
   17.6933   70.6531   -6.9472 C   0  0  0  0  0  0  0  0  0  0  0  0
   18.4136   70.4205   -8.0462 C   0  0  0  0  0  0  0  0  0  0  0  0
   17.7172   70.1858   -9.3281 C   0  0  0  0  0  0  0  0  0  0  0  0
   15.8415   70.0785  -10.0891 H   0  0  0  0  0  0  0  0  0  0  0  0
   20.8302   71.8731   -3.9830 O   0  0  0  0  0  0  0  0  0  0  0  0
   21.5587   73.3093   -3.8401 P   0  0  2  0  0  0  0  0  0  0  0  0
   22.7525   73.2285   -4.9304 O   0  0  0  0  0  0  0  0  0  0  0  0
   22.0146   73.6326   -2.4467 O   0  0  0  0  0  0  0  0  0  0  0  0
   20.5092   74.3643   -4.4629 O   0  0  0  0  0  0  0  0  0  0  0  0
   18.1622   74.6638   -4.5685 O   0  0  0  0  0  0  0  0  0  0  0  0
   19.2752   75.3562   -8.4864 O   0  0  0  0  0  0  0  0  0  0  0  0
   20.4736   73.1643   -6.9718 O   0  0  0  0  0  0  0  0  0  0  0  0
   18.5723   77.5823   -6.7540 O   0  0  0  0  0  0  0  0  0  0  0  0
   19.4336   75.3541   -7.0676 C   0  0  2  0  0  0  0  0  0  0  0  0
   19.3460   73.9200   -6.5450 C   0  0  2  0  0  0  0  0  0  0  0  0
   18.3161   76.2091   -6.4658 C   0  0  1  0  0  0  0  0  0  0  0  0
   19.2807   73.8974   -5.0173 C   0  0  1  0  0  0  0  0  0  0  0  0
   18.2354   76.0352   -4.9519 C   0  0  1  0  0  0  0  0  0  0  0  0
   19.9746   74.8189   -8.8907 H   0  0  0  0  0  0  0  0  0  0  0  0
   20.5214   73.1746   -7.9403 H   0  0  0  0  0  0  0  0  0  0  0  0
   18.6261   77.7066   -7.7144 H   0  0  0  0  0  0  0  0  0  0  0  0
   16.1161   76.9167   -5.4347 O   0  0  0  0  0  0  0  0  0  0  0  0
   16.7005   76.7579   -3.2364 O   0  0  0  0  0  0  0  0  0  0  0  0
   16.9588   76.6007   -4.4203 C   0  0  0  0  0  0  0  0  0  0  0  0
  1  4  1  0
  1 24  1  0
  1  2  1  6
  1  3  2  0
 25 28  1  0
 25 24  1  0
 25 26  1  6
 25 27  2  0
  6 11  1  0
  6 12  1  0
 29 36  1  0
 29 37  1  0
  9  7  1  6
  7 13  1  0
 10  8  1  6
  8 14  1  0
  4  5  1  0
 36 28  1  1
 33 30  1  6
 30 38  1  0
 34 31  1  1
 31 39  1  0
 35 32  1  1
 32 40  1  0
 41 43  1  0
 15 19  2  0
 42 43  2  0
 16 22  2  0
 12 17  1  6
 17 19  1  0
 17 20  1  0
 18 19  1  0
 18 22  1  0
 18 23  1  0
  9 10  1  0
  9 11  1  0
 10 12  1  0
 11  5  1  6
 33 34  1  0
 33 35  1  0
 34 36  1  0
 35 37  1  0
 37 43  1  6
 20 21  2  0
 21 22  1  0
M  CHG  3   2  -1  26  -1  41  -1
M  END
>  <COMPND>  (123) 
    udp_gluA.pdb 

>  <AUTHOR>  (123) 
    GENERATED BY OPEN BABEL 3.1.1

>  <MASTER>  (123) 
        0    0    0    0    0    0    0    0   56    0   56    0

>  <minimizedAffinity>  (123) 
-6.48864

>  <CNNscore>  (123) 
0.6332722902

>  <CNNaffinity>  (123) 
4.3114924431

>  <CNN_VS>  (123) 
2.7303485870

>  <CNNaffinity_variance>  (123) 
0.3708242774

$$$$
124
     RDKit          3D

 43 45  0  0  0  0  0  0  0  0999 V2000
   18.5935   73.9917   -7.6914 P   0  0  2  0  0  0  0  0  0  0  0  0
   17.2366   73.7033   -6.8580 O   0  0  0  0  0  0  0  0  0  0  0  0
   18.6088   75.2874   -8.4483 O   0  0  0  0  0  0  0  0  0  0  0  0
   18.7941   72.6556   -8.5816 O   0  0  0  0  0  0  0  0  0  0  0  0
   19.2288   71.4725   -7.9367 C   0  0  0  0  0  0  0  0  0  0  0  0
   17.9900   69.4738   -7.4386 O   0  0  0  0  0  0  0  0  0  0  0  0
   16.9733   69.6247  -10.2555 O   0  0  0  0  0  0  0  0  0  0  0  0
   14.8860   70.6259   -8.8143 O   0  0  0  0  0  0  0  0  0  0  0  0
   17.2593   70.6825   -9.3402 C   0  0  1  0  0  0  0  0  0  0  0  0
   16.1849   70.7598   -8.2762 C   0  0  2  0  0  0  0  0  0  0  0  0
   18.4837   70.2828   -8.5281 C   0  0  1  0  0  0  0  0  0  0  0  0
   16.5616   69.6054   -7.3632 C   0  0  2  0  0  0  0  0  0  0  0  0
   16.1945   69.8573  -10.7857 H   0  0  0  0  0  0  0  0  0  0  0  0
   14.6938   71.3850   -9.3877 H   0  0  0  0  0  0  0  0  0  0  0  0
   13.9963   69.0851   -6.3024 O   0  0  0  0  0  0  0  0  0  0  0  0
   15.2325   70.5496   -2.1107 O   0  0  0  0  0  0  0  0  0  0  0  0
   16.1858   69.8414   -5.9980 N   0  0  0  0  0  0  0  0  0  0  0  0
   14.6142   69.8159   -4.2160 N   0  0  0  0  0  0  0  0  0  0  0  0
   14.8710   69.5460   -5.5666 C   0  0  0  0  0  0  0  0  0  0  0  0
   17.1143   70.3579   -5.1024 C   0  0  0  0  0  0  0  0  0  0  0  0
   16.8548   70.6099   -3.8179 C   0  0  0  0  0  0  0  0  0  0  0  0
   15.5045   70.3300   -3.2871 C   0  0  0  0  0  0  0  0  0  0  0  0
   13.7050   69.6203   -3.8929 H   0  0  0  0  0  0  0  0  0  0  0  0
   19.7462   73.8554   -6.5665 O   0  0  0  0  0  0  0  0  0  0  0  0
   20.5497   74.9803   -5.7283 P   0  0  2  0  0  0  0  0  0  0  0  0
   19.4473   76.1482   -5.5255 O   0  0  0  0  0  0  0  0  0  0  0  0
   21.8238   75.4385   -6.3769 O   0  0  0  0  0  0  0  0  0  0  0  0
   20.7388   74.3395   -4.2600 O   0  0  0  0  0  0  0  0  0  0  0  0
   20.0274   72.2743   -3.3446 O   0  0  0  0  0  0  0  0  0  0  0  0
   19.7209   74.7901   -0.0819 O   0  0  0  0  0  0  0  0  0  0  0  0
   18.8453   75.6778   -2.7239 O   0  0  0  0  0  0  0  0  0  0  0  0
   21.9308   72.9111   -0.2731 O   0  0  0  0  0  0  0  0  0  0  0  0
   20.2664   74.3103   -1.3109 C   0  0  2  0  0  0  0  0  0  0  0  0
   19.1880   74.3366   -2.3943 C   0  0  2  0  0  0  0  0  0  0  0  0
   20.7574   72.8788   -1.0834 C   0  0  1  0  0  0  0  0  0  0  0  0
   19.6645   73.6194   -3.6581 C   0  0  1  0  0  0  0  0  0  0  0  0
   21.0942   72.1892   -2.4023 C   0  0  1  0  0  0  0  0  0  0  0  0
   19.4022   75.6985   -0.2023 H   0  0  0  0  0  0  0  0  0  0  0  0
   18.5423   76.1389   -1.9264 H   0  0  0  0  0  0  0  0  0  0  0  0
   21.7301   73.3478    0.5694 H   0  0  0  0  0  0  0  0  0  0  0  0
   20.5988   70.0315   -3.1772 O   0  0  0  0  0  0  0  0  0  0  0  0
   21.8816   70.1931   -1.2991 O   0  0  0  0  0  0  0  0  0  0  0  0
   21.2515   70.7164   -2.2058 C   0  0  0  0  0  0  0  0  0  0  0  0
  1  4  1  0
  1 24  1  0
  1  2  1  1
  1  3  2  0
 25 28  1  0
 25 24  1  0
 25 26  1  1
 25 27  2  0
  6 11  1  0
  6 12  1  0
 29 36  1  0
 29 37  1  0
  9  7  1  6
  7 13  1  0
 10  8  1  6
  8 14  1  0
  4  5  1  0
 36 28  1  1
 33 30  1  1
 30 38  1  0
 34 31  1  6
 31 39  1  0
 35 32  1  1
 32 40  1  0
 41 43  1  0
 15 19  2  0
 42 43  2  0
 16 22  2  0
 12 17  1  1
 17 19  1  0
 17 20  1  0
 18 19  1  0
 18 22  1  0
 18 23  1  0
  9 10  1  0
  9 11  1  0
 10 12  1  0
 11  5  1  1
 33 34  1  0
 33 35  1  0
 34 36  1  0
 35 37  1  0
 37 43  1  1
 20 21  2  0
 21 22  1  0
M  CHG  3   2  -1  26  -1  41  -1
M  END
>  <COMPND>  (124) 
    udp_gluA.pdb 

>  <AUTHOR>  (124) 
    GENERATED BY OPEN BABEL 3.1.1

>  <MASTER>  (124) 
        0    0    0    0    0    0    0    0   56    0   56    0

>  <minimizedAffinity>  (124) 
-7.31997

>  <CNNscore>  (124) 
0.5496447682

>  <CNNaffinity>  (124) 
4.2728776932

>  <CNN_VS>  (124) 
2.3485648632

>  <CNNaffinity_variance>  (124) 
0.6133163571

$$$$
125
     RDKit          3D

 43 45  0  0  0  0  0  0  0  0999 V2000
   17.9799   69.8491   -6.0027 P   0  0  2  0  0  0  0  0  0  0  0  0
   16.9341   68.6142   -6.0125 O   0  0  0  0  0  0  0  0  0  0  0  0
   17.3579   71.2048   -5.8387 O   0  0  0  0  0  0  0  0  0  0  0  0
   18.8489   69.6331   -7.3503 O   0  0  0  0  0  0  0  0  0  0  0  0
   18.1978   69.7557   -8.6015 C   0  0  0  0  0  0  0  0  0  0  0  0
   17.9650   71.4777  -10.2623 O   0  0  0  0  0  0  0  0  0  0  0  0
   20.6797   72.4163   -9.4016 O   0  0  0  0  0  0  0  0  0  0  0  0
   19.0151   74.1673   -8.1370 O   0  0  0  0  0  0  0  0  0  0  0  0
   19.6239   71.8625   -8.6160 C   0  0  1  0  0  0  0  0  0  0  0  0
   18.5172   72.8795   -8.4338 C   0  0  2  0  0  0  0  0  0  0  0  0
   18.9353   70.7874   -9.4455 C   0  0  1  0  0  0  0  0  0  0  0  0
   17.8109   72.8210   -9.7776 C   0  0  2  0  0  0  0  0  0  0  0  0
   21.1346   73.1059   -8.8925 H   0  0  0  0  0  0  0  0  0  0  0  0
   19.4554   74.1523   -7.2722 H   0  0  0  0  0  0  0  0  0  0  0  0
   16.3123   74.1402  -11.7752 O   0  0  0  0  0  0  0  0  0  0  0  0
   12.4467   73.9254   -9.2742 O   0  0  0  0  0  0  0  0  0  0  0  0
   16.4111   73.1225   -9.6745 N   0  0  0  0  0  0  0  0  0  0  0  0
   14.3887   74.0329  -10.5272 N   0  0  0  0  0  0  0  0  0  0  0  0
   15.7526   73.7888  -10.7349 C   0  0  0  0  0  0  0  0  0  0  0  0
   15.7053   72.7581   -8.5343 C   0  0  0  0  0  0  0  0  0  0  0  0
   14.4054   72.9975   -8.3508 C   0  0  0  0  0  0  0  0  0  0  0  0
   13.6435   73.6902   -9.4106 C   0  0  0  0  0  0  0  0  0  0  0  0
   13.9092   74.4974  -11.2509 H   0  0  0  0  0  0  0  0  0  0  0  0
   19.0162   69.4377   -4.8323 O   0  0  0  0  0  0  0  0  0  0  0  0
   19.4349   70.1996   -3.4692 P   0  0  2  0  0  0  0  0  0  0  0  0
   20.7758   69.4198   -3.0065 O   0  0  0  0  0  0  0  0  0  0  0  0
   18.3530   70.2401   -2.4291 O   0  0  0  0  0  0  0  0  0  0  0  0
   19.9530   71.6487   -3.9530 O   0  0  0  0  0  0  0  0  0  0  0  0
   20.5344   72.9337   -2.0503 O   0  0  0  0  0  0  0  0  0  0  0  0
   21.2365   75.6097   -5.1185 O   0  0  0  0  0  0  0  0  0  0  0  0
   18.8615   73.9089   -5.1515 O   0  0  0  0  0  0  0  0  0  0  0  0
   23.4635   74.2956   -3.7902 O   0  0  0  0  0  0  0  0  0  0  0  0
   21.1619   74.3243   -4.5020 C   0  0  2  0  0  0  0  0  0  0  0  0
   19.7298   74.0631   -4.0348 C   0  0  2  0  0  0  0  0  0  0  0  0
   22.1208   74.3154   -3.3094 C   0  0  1  0  0  0  0  0  0  0  0  0
   19.6575   72.8039   -3.1700 C   0  0  1  0  0  0  0  0  0  0  0  0
   21.9007   73.0903   -2.4267 C   0  0  1  0  0  0  0  0  0  0  0  0
   20.6352   75.6390   -5.8794 H   0  0  0  0  0  0  0  0  0  0  0  0
   18.9026   74.7042   -5.7048 H   0  0  0  0  0  0  0  0  0  0  0  0
   23.6167   75.0702   -4.3537 H   0  0  0  0  0  0  0  0  0  0  0  0
   23.2561   74.4339   -1.0632 O   0  0  0  0  0  0  0  0  0  0  0  0
   22.5711   72.4364   -0.2031 O   0  0  0  0  0  0  0  0  0  0  0  0
   22.5941   73.2514   -1.1131 C   0  0  0  0  0  0  0  0  0  0  0  0
  1  4  1  0
  1 24  1  0
  1  2  1  6
  1  3  2  0
 25 28  1  0
 25 24  1  0
 25 26  1  1
 25 27  2  0
  6 11  1  0
  6 12  1  0
 29 36  1  0
 29 37  1  0
  9  7  1  6
  7 13  1  0
 10  8  1  6
  8 14  1  0
  4  5  1  0
 36 28  1  6
 33 30  1  1
 30 38  1  0
 34 31  1  6
 31 39  1  0
 35 32  1  6
 32 40  1  0
 41 43  1  0
 15 19  2  0
 42 43  2  0
 16 22  2  0
 12 17  1  1
 17 19  1  0
 17 20  1  0
 18 19  1  0
 18 22  1  0
 18 23  1  0
  9 10  1  0
  9 11  1  0
 10 12  1  0
 11  5  1  1
 33 34  1  0
 33 35  1  0
 34 36  1  0
 35 37  1  0
 37 43  1  1
 20 21  2  0
 21 22  1  0
M  CHG  3   2  -1  26  -1  41  -1
M  END
>  <COMPND>  (125) 
    udp_gluA.pdb 

>  <AUTHOR>  (125) 
    GENERATED BY OPEN BABEL 3.1.1

>  <MASTER>  (125) 
        0    0    0    0    0    0    0    0   56    0   56    0

>  <minimizedAffinity>  (125) 
-7.43997

>  <CNNscore>  (125) 
0.5043300986

>  <CNNaffinity>  (125) 
4.0942192078

>  <CNN_VS>  (125) 
2.0648379326

>  <CNNaffinity_variance>  (125) 
0.2670539021

$$$$
126
     RDKit          3D

 43 45  0  0  0  0  0  0  0  0999 V2000
   16.5527   74.4677   -5.9505 P   0  0  2  0  0  0  0  0  0  0  0  0
   15.3421   73.4403   -6.2630 O   0  0  0  0  0  0  0  0  0  0  0  0
   16.1257   75.8169   -5.4514 O   0  0  0  0  0  0  0  0  0  0  0  0
   17.4250   74.4664   -7.3132 O   0  0  0  0  0  0  0  0  0  0  0  0
   17.0338   73.6038   -8.3655 C   0  0  0  0  0  0  0  0  0  0  0  0
   18.1457   71.6751   -7.4592 O   0  0  0  0  0  0  0  0  0  0  0  0
   19.1452   71.1748  -10.2416 O   0  0  0  0  0  0  0  0  0  0  0  0
   17.0781   69.4096  -10.0246 O   0  0  0  0  0  0  0  0  0  0  0  0
   17.8857   71.6933   -9.8135 C   0  0  1  0  0  0  0  0  0  0  0  0
   17.0293   70.5837   -9.2412 C   0  0  2  0  0  0  0  0  0  0  0  0
   18.1291   72.5698   -8.5926 C   0  0  1  0  0  0  0  0  0  0  0  0
   17.6396   70.3930   -7.8632 C   0  0  2  0  0  0  0  0  0  0  0  0
   19.0153   70.6113  -11.0209 H   0  0  0  0  0  0  0  0  0  0  0  0
   16.6775   69.5825  -10.8916 H   0  0  0  0  0  0  0  0  0  0  0  0
   18.3025   69.3223   -5.3352 O   0  0  0  0  0  0  0  0  0  0  0  0
   13.8704   68.7037   -4.2318 O   0  0  0  0  0  0  0  0  0  0  0  0
   16.6787   69.9443   -6.8956 N   0  0  0  0  0  0  0  0  0  0  0  0
   16.0945   69.0143   -4.7885 N   0  0  0  0  0  0  0  0  0  0  0  0
   17.1166   69.4224   -5.6554 C   0  0  0  0  0  0  0  0  0  0  0  0
   15.3205   70.0248   -7.1780 C   0  0  0  0  0  0  0  0  0  0  0  0
   14.3579   69.6319   -6.3415 C   0  0  0  0  0  0  0  0  0  0  0  0
   14.7306   69.0740   -5.0249 C   0  0  0  0  0  0  0  0  0  0  0  0
   16.3749   68.6456   -3.9197 H   0  0  0  0  0  0  0  0  0  0  0  0
   17.4812   73.6330   -4.9239 O   0  0  0  0  0  0  0  0  0  0  0  0
   17.2412   73.2051   -3.3834 P   0  0  2  0  0  0  0  0  0  0  0  0
   16.4017   71.8267   -3.5089 O   0  0  0  0  0  0  0  0  0  0  0  0
   16.5763   74.2602   -2.5477 O   0  0  0  0  0  0  0  0  0  0  0  0
   18.6953   72.7494   -2.8539 O   0  0  0  0  0  0  0  0  0  0  0  0
   20.5893   72.9302   -4.2644 O   0  0  0  0  0  0  0  0  0  0  0  0
   21.9322   70.2856   -1.3885 O   0  0  0  0  0  0  0  0  0  0  0  0
   19.2306   70.0466   -2.4740 O   0  0  0  0  0  0  0  0  0  0  0  0
   22.8202   73.0535   -1.3541 O   0  0  0  0  0  0  0  0  0  0  0  0
   21.1726   71.3817   -1.8979 C   0  0  2  0  0  0  0  0  0  0  0  0
   20.2449   70.8891   -3.0088 C   0  0  2  0  0  0  0  0  0  0  0  0
   22.1523   72.4223   -2.4450 C   0  0  1  0  0  0  0  0  0  0  0  0
   19.5860   72.0642   -3.7326 C   0  0  1  0  0  0  0  0  0  0  0  0
   21.4312   73.4920   -3.2601 C   0  0  1  0  0  0  0  0  0  0  0  0
   21.3306   69.6114   -1.0354 H   0  0  0  0  0  0  0  0  0  0  0  0
   19.6416   69.2989   -2.0131 H   0  0  0  0  0  0  0  0  0  0  0  0
   23.2831   72.3836   -0.8271 H   0  0  0  0  0  0  0  0  0  0  0  0
   23.4365   73.5289   -4.4761 O   0  0  0  0  0  0  0  0  0  0  0  0
   22.2943   75.4939   -4.2938 O   0  0  0  0  0  0  0  0  0  0  0  0
   22.4052   74.3012   -4.0530 C   0  0  0  0  0  0  0  0  0  0  0  0
  1  4  1  0
  1 24  1  0
  1  2  1  6
  1  3  2  0
 25 28  1  0
 25 24  1  0
 25 26  1  6
 25 27  2  0
  6 11  1  0
  6 12  1  0
 29 36  1  0
 29 37  1  0
  9  7  1  1
  7 13  1  0
 10  8  1  6
  8 14  1  0
  4  5  1  0
 36 28  1  1
 33 30  1  6
 30 38  1  0
 34 31  1  1
 31 39  1  0
 35 32  1  1
 32 40  1  0
 41 43  1  0
 15 19  2  0
 42 43  2  0
 16 22  2  0
 12 17  1  1
 17 19  1  0
 17 20  1  0
 18 19  1  0
 18 22  1  0
 18 23  1  0
  9 10  1  0
  9 11  1  0
 10 12  1  0
 11  5  1  1
 33 34  1  0
 33 35  1  0
 34 36  1  0
 35 37  1  0
 37 43  1  6
 20 21  2  0
 21 22  1  0
M  CHG  3   2  -1  26  -1  41  -1
M  END
>  <COMPND>  (126) 
    udp_gluA.pdb 

>  <AUTHOR>  (126) 
    GENERATED BY OPEN BABEL 3.1.1

>  <MASTER>  (126) 
        0    0    0    0    0    0    0    0   56    0   56    0

>  <minimizedAffinity>  (126) 
-7.07343

>  <CNNscore>  (126) 
0.5032529235

>  <CNNaffinity>  (126) 
4.2457923889

>  <CNN_VS>  (126) 
2.1367075443

>  <CNNaffinity_variance>  (126) 
0.6943912506

$$$$
127
     RDKit          3D

 43 45  0  0  0  0  0  0  0  0999 V2000
   15.9438   71.1030   -3.1410 P   0  0  2  0  0  0  0  0  0  0  0  0
   15.6109   69.9155   -4.1887 O   0  0  0  0  0  0  0  0  0  0  0  0
   15.6474   70.7827   -1.7052 O   0  0  0  0  0  0  0  0  0  0  0  0
   15.1685   72.3864   -3.7491 O   0  0  0  0  0  0  0  0  0  0  0  0
   14.3063   72.1937   -4.8554 C   0  0  0  0  0  0  0  0  0  0  0  0
   15.8028   73.3133   -6.3668 O   0  0  0  0  0  0  0  0  0  0  0  0
   13.3622   74.6160   -7.5235 O   0  0  0  0  0  0  0  0  0  0  0  0
   13.8927   72.6388   -9.3249 O   0  0  0  0  0  0  0  0  0  0  0  0
   13.5238   73.2928   -7.0123 C   0  0  1  0  0  0  0  0  0  0  0  0
   14.3107   72.4457   -7.9898 C   0  0  2  0  0  0  0  0  0  0  0  0
   14.4674   73.3621   -5.8194 C   0  0  1  0  0  0  0  0  0  0  0  0
   15.7325   72.9228   -7.7473 C   0  0  2  0  0  0  0  0  0  0  0  0
   12.7632   74.5972   -8.2867 H   0  0  0  0  0  0  0  0  0  0  0  0
   12.9821   72.3192   -9.4281 H   0  0  0  0  0  0  0  0  0  0  0  0
   18.1817   73.3321   -9.0927 O   0  0  0  0  0  0  0  0  0  0  0  0
   19.3854   68.9071   -8.6293 O   0  0  0  0  0  0  0  0  0  0  0  0
   16.7046   71.8951   -7.9920 N   0  0  0  0  0  0  0  0  0  0  0  0
   18.7784   71.1276   -8.8615 N   0  0  0  0  0  0  0  0  0  0  0  0
   17.9029   72.2058   -8.6773 C   0  0  0  0  0  0  0  0  0  0  0  0
   16.4676   70.5979   -7.5539 C   0  0  0  0  0  0  0  0  0  0  0  0
   17.3118   69.5806   -7.7369 C   0  0  0  0  0  0  0  0  0  0  0  0
   18.5865   69.8203   -8.4447 C   0  0  0  0  0  0  0  0  0  0  0  0
   19.6185   71.3189   -9.3379 H   0  0  0  0  0  0  0  0  0  0  0  0
   17.4952   71.4355   -3.4503 O   0  0  0  0  0  0  0  0  0  0  0  0
   18.8171   70.5090   -3.3628 P   0  0  2  0  0  0  0  0  0  0  0  0
   19.2205   70.2926   -4.9155 O   0  0  0  0  0  0  0  0  0  0  0  0
   18.6269   69.2359   -2.5901 O   0  0  0  0  0  0  0  0  0  0  0  0
   19.9616   71.4832   -2.7767 O   0  0  0  0  0  0  0  0  0  0  0  0
   21.7178   72.3164   -4.1297 O   0  0  0  0  0  0  0  0  0  0  0  0
   23.2959   72.7590   -0.3374 O   0  0  0  0  0  0  0  0  0  0  0  0
   21.8238   70.3401   -1.0557 O   0  0  0  0  0  0  0  0  0  0  0  0
   22.2982   75.0759   -1.7823 O   0  0  0  0  0  0  0  0  0  0  0  0
   22.2630   72.7113   -1.3217 C   0  0  2  0  0  0  0  0  0  0  0  0
   22.2491   71.3326   -1.9824 C   0  0  2  0  0  0  0  0  0  0  0  0
   22.5499   73.7969   -2.3614 C   0  0  1  0  0  0  0  0  0  0  0  0
   21.3155   71.3158   -3.1936 C   0  0  1  0  0  0  0  0  0  0  0  0
   21.6639   73.6364   -3.5934 C   0  0  1  0  0  0  0  0  0  0  0  0
   23.1347   72.0776    0.3341 H   0  0  0  0  0  0  0  0  0  0  0  0
   22.4116   70.3454   -0.2845 H   0  0  0  0  0  0  0  0  0  0  0  0
   22.8558   75.1907   -0.9970 H   0  0  0  0  0  0  0  0  0  0  0  0
   21.9144   75.7897   -4.4891 O   0  0  0  0  0  0  0  0  0  0  0  0
   22.7298   74.0506   -5.7179 O   0  0  0  0  0  0  0  0  0  0  0  0
   22.1663   74.4776   -4.7213 C   0  0  0  0  0  0  0  0  0  0  0  0
  1  4  1  0
  1 24  1  0
  1  2  1  6
  1  3  2  0
 25 28  1  0
 25 24  1  0
 25 26  1  6
 25 27  2  0
  6 11  1  0
  6 12  1  0
 29 36  1  0
 29 37  1  0
  9  7  1  6
  7 13  1  0
 10  8  1  6
  8 14  1  0
  4  5  1  0
 36 28  1  1
 33 30  1  1
 30 38  1  0
 34 31  1  1
 31 39  1  0
 35 32  1  1
 32 40  1  0
 41 43  1  0
 15 19  2  0
 42 43  2  0
 16 22  2  0
 12 17  1  1
 17 19  1  0
 17 20  1  0
 18 19  1  0
 18 22  1  0
 18 23  1  0
  9 10  1  0
  9 11  1  0
 10 12  1  0
 11  5  1  1
 33 34  1  0
 33 35  1  0
 34 36  1  0
 35 37  1  0
 37 43  1  6
 20 21  2  0
 21 22  1  0
M  CHG  3   2  -1  26  -1  41  -1
M  END
>  <COMPND>  (127) 
    udp_gluA.pdb 

>  <AUTHOR>  (127) 
    GENERATED BY OPEN BABEL 3.1.1

>  <MASTER>  (127) 
        0    0    0    0    0    0    0    0   56    0   56    0

>  <minimizedAffinity>  (127) 
-7.51067

>  <CNNscore>  (127) 
0.4887414277

>  <CNNaffinity>  (127) 
4.4868807793

>  <CNN_VS>  (127) 
2.1929244995

>  <CNNaffinity_variance>  (127) 
0.2152678519

$$$$
128
     RDKit          3D

 43 45  0  0  0  0  0  0  0  0999 V2000
   21.2091   71.0765   -2.3469 P   0  0  2  0  0  0  0  0  0  0  0  0
   21.2246   69.5478   -2.8776 O   0  0  0  0  0  0  0  0  0  0  0  0
   21.7078   71.2653   -0.9442 O   0  0  0  0  0  0  0  0  0  0  0  0
   19.6935   71.5693   -2.6261 O   0  0  0  0  0  0  0  0  0  0  0  0
   19.0793   71.2074   -3.8493 C   0  0  0  0  0  0  0  0  0  0  0  0
   16.9879   71.6239   -4.9583 O   0  0  0  0  0  0  0  0  0  0  0  0
   15.6970   70.1990   -2.6574 O   0  0  0  0  0  0  0  0  0  0  0  0
   15.7246   68.2876   -4.6021 O   0  0  0  0  0  0  0  0  0  0  0  0
   16.9460   69.9360   -3.2971 C   0  0  1  0  0  0  0  0  0  0  0  0
   16.7176   69.2907   -4.6475 C   0  0  2  0  0  0  0  0  0  0  0  0
   17.5665   71.2717   -3.6830 C   0  0  1  0  0  0  0  0  0  0  0  0
   16.3091   70.4798   -5.5002 C   0  0  2  0  0  0  0  0  0  0  0  0
   15.2814   69.3602   -2.4015 H   0  0  0  0  0  0  0  0  0  0  0  0
   16.0324   67.5528   -4.0476 H   0  0  0  0  0  0  0  0  0  0  0  0
   14.5122   70.6409   -7.6731 O   0  0  0  0  0  0  0  0  0  0  0  0
   17.8637   69.8589  -10.7390 O   0  0  0  0  0  0  0  0  0  0  0  0
   16.6853   70.3222   -6.8766 N   0  0  0  0  0  0  0  0  0  0  0  0
   16.1830   70.2502   -9.1979 N   0  0  0  0  0  0  0  0  0  0  0  0
   15.7050   70.4214   -7.8921 C   0  0  0  0  0  0  0  0  0  0  0  0
   18.0115   70.0743   -7.2091 C   0  0  0  0  0  0  0  0  0  0  0  0
   18.4520   69.9135   -8.4584 C   0  0  0  0  0  0  0  0  0  0  0  0
   17.4918   70.0013   -9.5781 C   0  0  0  0  0  0  0  0  0  0  0  0
   15.5186   70.3129   -9.9218 H   0  0  0  0  0  0  0  0  0  0  0  0
   22.0600   71.8610   -3.4754 O   0  0  0  0  0  0  0  0  0  0  0  0
   22.4343   73.4266   -3.6252 P   0  0  2  0  0  0  0  0  0  0  0  0
   20.9924   74.1338   -3.8279 O   0  0  0  0  0  0  0  0  0  0  0  0
   23.4260   73.7213   -4.7131 O   0  0  0  0  0  0  0  0  0  0  0  0
   22.9053   73.8778   -2.1497 O   0  0  0  0  0  0  0  0  0  0  0  0
   22.0164   74.5558   -0.0618 O   0  0  0  0  0  0  0  0  0  0  0  0
   24.7088   77.5876   -0.8537 O   0  0  0  0  0  0  0  0  0  0  0  0
   23.0011   76.5319   -2.9759 O   0  0  0  0  0  0  0  0  0  0  0  0
   25.3523   75.5400    1.1069 O   0  0  0  0  0  0  0  0  0  0  0  0
   24.2020   76.2535   -0.8863 C   0  0  2  0  0  0  0  0  0  0  0  0
   22.8459   76.2383   -1.5923 C   0  0  2  0  0  0  0  0  0  0  0  0
   24.0558   75.7677    0.5575 C   0  0  1  0  0  0  0  0  0  0  0  0
   22.1679   74.8753   -1.4454 C   0  0  1  0  0  0  0  0  0  0  0  0
   23.2601   74.4677    0.6301 C   0  0  1  0  0  0  0  0  0  0  0  0
   24.8099   77.9175   -1.7605 H   0  0  0  0  0  0  0  0  0  0  0  0
   23.4310   77.3953   -3.0765 H   0  0  0  0  0  0  0  0  0  0  0  0
   25.8691   76.3598    1.0666 H   0  0  0  0  0  0  0  0  0  0  0  0
   21.5039   73.9735    2.1042 O   0  0  0  0  0  0  0  0  0  0  0  0
   23.5968   74.1306    2.9953 O   0  0  0  0  0  0  0  0  0  0  0  0
   22.8425   74.1791    2.0353 C   0  0  0  0  0  0  0  0  0  0  0  0
  1  4  1  0
  1 24  1  0
  1  2  1  6
  1  3  2  0
 25 28  1  0
 25 24  1  0
 25 26  1  6
 25 27  2  0
  6 11  1  0
  6 12  1  0
 29 36  1  0
 29 37  1  0
  9  7  1  6
  7 13  1  0
 10  8  1  1
  8 14  1  0
  4  5  1  0
 36 28  1  6
 33 30  1  1
 30 38  1  0
 34 31  1  6
 31 39  1  0
 35 32  1  6
 32 40  1  0
 41 43  1  0
 15 19  2  0
 42 43  2  0
 16 22  2  0
 12 17  1  6
 17 19  1  0
 17 20  1  0
 18 19  1  0
 18 22  1  0
 18 23  1  0
  9 10  1  0
  9 11  1  0
 10 12  1  0
 11  5  1  6
 33 34  1  0
 33 35  1  0
 34 36  1  0
 35 37  1  0
 37 43  1  1
 20 21  2  0
 21 22  1  0
M  CHG  3   2  -1  26  -1  41  -1
M  END
>  <COMPND>  (128) 
    udp_gluA.pdb 

>  <AUTHOR>  (128) 
    GENERATED BY OPEN BABEL 3.1.1

>  <MASTER>  (128) 
        0    0    0    0    0    0    0    0   56    0   56    0

>  <minimizedAffinity>  (128) 
-7.69683

>  <CNNscore>  (128) 
0.4846653342

>  <CNNaffinity>  (128) 
4.3869218826

>  <CNN_VS>  (128) 
2.1261889935

>  <CNNaffinity_variance>  (128) 
0.0955859497

$$$$
129
     RDKit          3D

 43 45  0  0  0  0  0  0  0  0999 V2000
   15.8257   70.4823   -3.7504 P   0  0  2  0  0  0  0  0  0  0  0  0
   15.9422   69.0025   -4.3951 O   0  0  0  0  0  0  0  0  0  0  0  0
   15.2952   70.5221   -2.3473 O   0  0  0  0  0  0  0  0  0  0  0  0
   14.9776   71.3178   -4.8462 O   0  0  0  0  0  0  0  0  0  0  0  0
   15.6341   72.3403   -5.5729 C   0  0  0  0  0  0  0  0  0  0  0  0
   16.2550   72.9325   -7.8182 O   0  0  0  0  0  0  0  0  0  0  0  0
   14.4581   70.7019   -8.7051 O   0  0  0  0  0  0  0  0  0  0  0  0
   16.9369   69.5815   -8.8952 O   0  0  0  0  0  0  0  0  0  0  0  0
   15.3005   70.7807   -7.5550 C   0  0  1  0  0  0  0  0  0  0  0  0
   16.7515   70.6199   -7.9561 C   0  0  2  0  0  0  0  0  0  0  0  0
   15.2676   72.2154   -7.0462 C   0  0  1  0  0  0  0  0  0  0  0  0
   17.0743   71.9899   -8.5279 C   0  0  2  0  0  0  0  0  0  0  0  0
   14.4629   69.7942   -9.0483 H   0  0  0  0  0  0  0  0  0  0  0  0
   16.7188   68.7303   -8.4832 H   0  0  0  0  0  0  0  0  0  0  0  0
   19.1787   71.0748  -10.1743 O   0  0  0  0  0  0  0  0  0  0  0  0
   22.3295   73.4195   -7.7620 O   0  0  0  0  0  0  0  0  0  0  0  0
   18.4540   72.3456   -8.3526 N   0  0  0  0  0  0  0  0  0  0  0  0
   20.7461   72.2427   -8.9707 N   0  0  0  0  0  0  0  0  0  0  0  0
   19.4332   71.8310   -9.2350 C   0  0  0  0  0  0  0  0  0  0  0  0
   18.8251   73.1958   -7.3180 C   0  0  0  0  0  0  0  0  0  0  0  0
   20.0806   73.5793   -7.0787 C   0  0  0  0  0  0  0  0  0  0  0  0
   21.1641   73.0859   -7.9539 C   0  0  0  0  0  0  0  0  0  0  0  0
   21.4456   71.8957   -9.5704 H   0  0  0  0  0  0  0  0  0  0  0  0
   17.3211   71.0716   -3.9219 O   0  0  0  0  0  0  0  0  0  0  0  0
   18.7634   70.4175   -3.5969 P   0  0  2  0  0  0  0  0  0  0  0  0
   19.3259   70.0163   -5.0608 O   0  0  0  0  0  0  0  0  0  0  0  0
   18.7172   69.2794   -2.6189 O   0  0  0  0  0  0  0  0  0  0  0  0
   19.6817   71.6607   -3.1345 O   0  0  0  0  0  0  0  0  0  0  0  0
   21.4861   72.8638   -4.0862 O   0  0  0  0  0  0  0  0  0  0  0  0
   22.6798   72.5365   -0.1447 O   0  0  0  0  0  0  0  0  0  0  0  0
   21.4608   70.2634   -1.5164 O   0  0  0  0  0  0  0  0  0  0  0  0
   21.6479   75.0606   -1.1520 O   0  0  0  0  0  0  0  0  0  0  0  0
   21.7459   72.6542   -1.2180 C   0  0  2  0  0  0  0  0  0  0  0  0
   21.8933   71.4575   -2.1581 C   0  0  2  0  0  0  0  0  0  0  0  0
   22.0443   73.9568   -1.9637 C   0  0  1  0  0  0  0  0  0  0  0  0
   21.0762   71.6609   -3.4347 C   0  0  1  0  0  0  0  0  0  0  0  0
   21.2869   74.0274   -3.2866 C   0  0  1  0  0  0  0  0  0  0  0  0
   22.5096   71.7157    0.3438 H   0  0  0  0  0  0  0  0  0  0  0  0
   21.9749   70.1283   -0.7053 H   0  0  0  0  0  0  0  0  0  0  0  0
   22.1226   75.0274   -0.3068 H   0  0  0  0  0  0  0  0  0  0  0  0
   22.8273   74.6623   -4.9376 O   0  0  0  0  0  0  0  0  0  0  0  0
   21.4226   76.2764   -4.1497 O   0  0  0  0  0  0  0  0  0  0  0  0
   21.8253   75.1228   -4.1483 C   0  0  0  0  0  0  0  0  0  0  0  0
  1  4  1  0
  1 24  1  0
  1  2  1  6
  1  3  2  0
 25 28  1  0
 25 24  1  0
 25 26  1  6
 25 27  2  0
  6 11  1  0
  6 12  1  0
 29 36  1  0
 29 37  1  0
  9  7  1  6
  7 13  1  0
 10  8  1  6
  8 14  1  0
  4  5  1  0
 36 28  1  1
 33 30  1  1
 30 38  1  0
 34 31  1  1
 31 39  1  0
 35 32  1  1
 32 40  1  0
 41 43  1  0
 15 19  2  0
 42 43  2  0
 16 22  2  0
 12 17  1  1
 17 19  1  0
 17 20  1  0
 18 19  1  0
 18 22  1  0
 18 23  1  0
  9 10  1  0
  9 11  1  0
 10 12  1  0
 11  5  1  1
 33 34  1  0
 33 35  1  0
 34 36  1  0
 35 37  1  0
 37 43  1  6
 20 21  2  0
 21 22  1  0
M  CHG  3   2  -1  26  -1  41  -1
M  END
>  <COMPND>  (129) 
    udp_gluA.pdb 

>  <AUTHOR>  (129) 
    GENERATED BY OPEN BABEL 3.1.1

>  <MASTER>  (129) 
        0    0    0    0    0    0    0    0   56    0   56    0

>  <minimizedAffinity>  (129) 
-8.11560

>  <CNNscore>  (129) 
0.4777932167

>  <CNNaffinity>  (129) 
4.2649812698

>  <CNN_VS>  (129) 
2.0377790928

>  <CNNaffinity_variance>  (129) 
0.4164329469

$$$$
130
     RDKit          3D

 43 45  0  0  0  0  0  0  0  0999 V2000
   21.4683   73.6166   -4.4273 P   0  0  2  0  0  0  0  0  0  0  0  0
   22.9615   73.5724   -5.0496 O   0  0  0  0  0  0  0  0  0  0  0  0
   20.8379   74.9778   -4.3890 O   0  0  0  0  0  0  0  0  0  0  0  0
   21.6206   72.8724   -2.9986 O   0  0  0  0  0  0  0  0  0  0  0  0
   22.6976   73.2400   -2.1563 C   0  0  0  0  0  0  0  0  0  0  0  0
   23.4615   73.1943    0.1223 O   0  0  0  0  0  0  0  0  0  0  0  0
   20.5752   73.4331    0.8993 O   0  0  0  0  0  0  0  0  0  0  0  0
   21.4902   75.9824    1.2153 O   0  0  0  0  0  0  0  0  0  0  0  0
   21.2657   74.0207   -0.2037 C   0  0  1  0  0  0  0  0  0  0  0  0
   22.1441   75.1577    0.2736 C   0  0  2  0  0  0  0  0  0  0  0  0
   22.2920   73.0142   -0.7054 C   0  0  1  0  0  0  0  0  0  0  0  0
   23.3270   74.4137    0.8695 C   0  0  2  0  0  0  0  0  0  0  0  0
   19.9139   74.0578    1.2371 H   0  0  0  0  0  0  0  0  0  0  0  0
   20.7453   76.4341    0.7874 H   0  0  0  0  0  0  0  0  0  0  0  0
   25.3257   74.4722    2.8640 O   0  0  0  0  0  0  0  0  0  0  0  0
   27.9773   77.3093    0.3814 O   0  0  0  0  0  0  0  0  0  0  0  0
   24.5497   75.1594    0.7702 N   0  0  0  0  0  0  0  0  0  0  0  0
   26.6440   75.8860    1.6261 N   0  0  0  0  0  0  0  0  0  0  0  0
   25.4877   75.1211    1.8289 C   0  0  0  0  0  0  0  0  0  0  0  0
   24.8105   75.9159   -0.3658 C   0  0  0  0  0  0  0  0  0  0  0  0
   25.9172   76.6398   -0.5448 C   0  0  0  0  0  0  0  0  0  0  0  0
   26.9477   76.6547    0.5142 C   0  0  0  0  0  0  0  0  0  0  0  0
   27.3108   75.8767    2.3503 H   0  0  0  0  0  0  0  0  0  0  0  0
   20.6709   72.5301   -5.3197 O   0  0  0  0  0  0  0  0  0  0  0  0
   19.2580   71.7844   -5.0720 P   0  0  2  0  0  0  0  0  0  0  0  0
   18.2346   73.0100   -4.8060 O   0  0  0  0  0  0  0  0  0  0  0  0
   19.2880   70.7555   -3.9791 O   0  0  0  0  0  0  0  0  0  0  0  0
   18.8386   71.2107   -6.5202 O   0  0  0  0  0  0  0  0  0  0  0  0
   17.0182   69.7702   -6.0506 O   0  0  0  0  0  0  0  0  0  0  0  0
   17.0703   69.7400  -10.1816 O   0  0  0  0  0  0  0  0  0  0  0  0
   19.5651   69.5998   -8.6681 O   0  0  0  0  0  0  0  0  0  0  0  0
   15.0517   71.2736   -8.7589 O   0  0  0  0  0  0  0  0  0  0  0  0
   17.2513   70.2979   -8.8801 C   0  0  2  0  0  0  0  0  0  0  0  0
   18.2672   69.4617   -8.1015 C   0  0  2  0  0  0  0  0  0  0  0  0
   15.8965   70.2876   -8.1685 C   0  0  1  0  0  0  0  0  0  0  0  0
   18.3166   69.8880   -6.6336 C   0  0  1  0  0  0  0  0  0  0  0  0
   16.0455   70.5996   -6.6822 C   0  0  1  0  0  0  0  0  0  0  0  0
   17.9184   69.7361  -10.6527 H   0  0  0  0  0  0  0  0  0  0  0  0
   19.5411   69.3313   -9.5996 H   0  0  0  0  0  0  0  0  0  0  0  0
   14.9488   71.0867   -9.7051 H   0  0  0  0  0  0  0  0  0  0  0  0
   13.9485   69.5496   -6.7256 O   0  0  0  0  0  0  0  0  0  0  0  0
   14.5493   70.5932   -4.7894 O   0  0  0  0  0  0  0  0  0  0  0  0
   14.7906   70.2680   -5.9422 C   0  0  0  0  0  0  0  0  0  0  0  0
  1  4  1  0
  1 24  1  0
  1  2  1  6
  1  3  2  0
 25 28  1  0
 25 24  1  0
 25 26  1  1
 25 27  2  0
  6 11  1  0
  6 12  1  0
 29 36  1  0
 29 37  1  0
  9  7  1  1
  7 13  1  0
 10  8  1  1
  8 14  1  0
  4  5  1  0
 36 28  1  6
 33 30  1  6
 30 38  1  0
 34 31  1  6
 31 39  1  0
 35 32  1  6
 32 40  1  0
 41 43  1  0
 15 19  2  0
 42 43  2  0
 16 22  2  0
 12 17  1  6
 17 19  1  0
 17 20  1  0
 18 19  1  0
 18 22  1  0
 18 23  1  0
  9 10  1  0
  9 11  1  0
 10 12  1  0
 11  5  1  6
 33 34  1  0
 33 35  1  0
 34 36  1  0
 35 37  1  0
 37 43  1  1
 20 21  2  0
 21 22  1  0
M  CHG  3   2  -1  26  -1  41  -1
M  END
>  <COMPND>  (130) 
    udp_gluA.pdb 

>  <AUTHOR>  (130) 
    GENERATED BY OPEN BABEL 3.1.1

>  <MASTER>  (130) 
        0    0    0    0    0    0    0    0   56    0   56    0

>  <minimizedAffinity>  (130) 
-7.09242

>  <CNNscore>  (130) 
0.4679358304

>  <CNNaffinity>  (130) 
4.0747041702

>  <CNN_VS>  (130) 
1.9067001343

>  <CNNaffinity_variance>  (130) 
0.0682630986

$$$$
131
     RDKit          3D

 43 45  0  0  0  0  0  0  0  0999 V2000
   21.3225   71.2116   -2.2734 P   0  0  2  0  0  0  0  0  0  0  0  0
   21.4586   69.6553   -2.6959 O   0  0  0  0  0  0  0  0  0  0  0  0
   21.8228   71.5406   -0.8975 O   0  0  0  0  0  0  0  0  0  0  0  0
   19.7673   71.5564   -2.5567 O   0  0  0  0  0  0  0  0  0  0  0  0
   19.1450   70.9880   -3.6943 C   0  0  0  0  0  0  0  0  0  0  0  0
   17.1328   71.6115   -4.8519 O   0  0  0  0  0  0  0  0  0  0  0  0
   15.6546   70.2008   -2.6572 O   0  0  0  0  0  0  0  0  0  0  0  0
   15.6045   68.3728   -4.6801 O   0  0  0  0  0  0  0  0  0  0  0  0
   16.9018   69.8666   -3.2667 C   0  0  1  0  0  0  0  0  0  0  0  0
   16.6728   69.2960   -4.6502 C   0  0  2  0  0  0  0  0  0  0  0  0
   17.6367   71.1640   -3.5747 C   0  0  1  0  0  0  0  0  0  0  0  0
   16.3877   70.5468   -5.4640 C   0  0  2  0  0  0  0  0  0  0  0  0
   15.1669   69.3876   -2.4512 H   0  0  0  0  0  0  0  0  0  0  0  0
   15.8348   67.5945   -4.1479 H   0  0  0  0  0  0  0  0  0  0  0  0
   14.6126   70.3661   -7.6533 O   0  0  0  0  0  0  0  0  0  0  0  0
   18.0801   70.0461  -10.6729 O   0  0  0  0  0  0  0  0  0  0  0  0
   16.7997   70.4156   -6.8329 N   0  0  0  0  0  0  0  0  0  0  0  0
   16.3413   70.2058   -9.1550 N   0  0  0  0  0  0  0  0  0  0  0  0
   15.8275   70.3325   -7.8577 C   0  0  0  0  0  0  0  0  0  0  0  0
   18.1521   70.3722   -7.1491 C   0  0  0  0  0  0  0  0  0  0  0  0
   18.6266   70.2513   -8.3905 C   0  0  0  0  0  0  0  0  0  0  0  0
   17.6773   70.1575   -9.5190 C   0  0  0  0  0  0  0  0  0  0  0  0
   15.6836   70.1441   -9.8851 H   0  0  0  0  0  0  0  0  0  0  0  0
   22.0892   71.9810   -3.4705 O   0  0  0  0  0  0  0  0  0  0  0  0
   22.2659   73.5585   -3.7766 P   0  0  2  0  0  0  0  0  0  0  0  0
   23.0209   73.5752   -5.2084 O   0  0  0  0  0  0  0  0  0  0  0  0
   22.9752   74.3201   -2.6946 O   0  0  0  0  0  0  0  0  0  0  0  0
   20.7743   74.0829   -4.0967 O   0  0  0  0  0  0  0  0  0  0  0  0
   20.2397   76.3143   -4.6837 O   0  0  0  0  0  0  0  0  0  0  0  0
   16.6441   74.9600   -3.1654 O   0  0  0  0  0  0  0  0  0  0  0  0
   19.1590   74.2845   -1.8414 O   0  0  0  0  0  0  0  0  0  0  0  0
   17.0006   75.2463   -6.0363 O   0  0  0  0  0  0  0  0  0  0  0  0
   17.8994   74.8503   -3.8362 C   0  0  2  0  0  0  0  0  0  0  0  0
   19.0261   75.2463   -2.8816 C   0  0  2  0  0  0  0  0  0  0  0  0
   17.8727   75.7874   -5.0458 C   0  0  1  0  0  0  0  0  0  0  0  0
   20.3574   75.3630   -3.6251 C   0  0  1  0  0  0  0  0  0  0  0  0
   19.2621   75.9497   -5.6556 C   0  0  1  0  0  0  0  0  0  0  0  0
   16.6377   74.3732   -2.3929 H   0  0  0  0  0  0  0  0  0  0  0  0
   18.3178   74.2051   -1.3656 H   0  0  0  0  0  0  0  0  0  0  0  0
   16.1128   75.1379   -5.6609 H   0  0  0  0  0  0  0  0  0  0  0  0
   18.1708   77.8524   -6.4862 O   0  0  0  0  0  0  0  0  0  0  0  0
   20.1985   77.3373   -7.3931 O   0  0  0  0  0  0  0  0  0  0  0  0
   19.2919   77.0995   -6.6091 C   0  0  0  0  0  0  0  0  0  0  0  0
  1  4  1  0
  1 24  1  0
  1  2  1  6
  1  3  2  0
 25 28  1  0
 25 24  1  0
 25 26  1  6
 25 27  2  0
  6 11  1  0
  6 12  1  0
 29 36  1  0
 29 37  1  0
  9  7  1  6
  7 13  1  0
 10  8  1  1
  8 14  1  0
  4  5  1  0
 36 28  1  6
 33 30  1  1
 30 38  1  0
 34 31  1  1
 31 39  1  0
 35 32  1  6
 32 40  1  0
 41 43  1  0
 15 19  2  0
 42 43  2  0
 16 22  2  0
 12 17  1  6
 17 19  1  0
 17 20  1  0
 18 19  1  0
 18 22  1  0
 18 23  1  0
  9 10  1  0
  9 11  1  0
 10 12  1  0
 11  5  1  6
 33 34  1  0
 33 35  1  0
 34 36  1  0
 35 37  1  0
 37 43  1  6
 20 21  2  0
 21 22  1  0
M  CHG  3   2  -1  26  -1  41  -1
M  END
>  <COMPND>  (131) 
    udp_gluA.pdb 

>  <AUTHOR>  (131) 
    GENERATED BY OPEN BABEL 3.1.1

>  <MASTER>  (131) 
        0    0    0    0    0    0    0    0   56    0   56    0

>  <minimizedAffinity>  (131) 
-6.67405

>  <CNNscore>  (131) 
0.4579868615

>  <CNNaffinity>  (131) 
4.1423425674

>  <CNN_VS>  (131) 
1.8971384764

>  <CNNaffinity_variance>  (131) 
0.3579072654

$$$$
132
     RDKit          3D

 43 45  0  0  0  0  0  0  0  0999 V2000
   21.2430   71.3873   -2.1778 P   0  0  2  0  0  0  0  0  0  0  0  0
   22.2658   71.3346   -3.4308 O   0  0  0  0  0  0  0  0  0  0  0  0
   21.8934   71.3373   -0.8265 O   0  0  0  0  0  0  0  0  0  0  0  0
   20.1831   70.2057   -2.4916 O   0  0  0  0  0  0  0  0  0  0  0  0
   19.4899   70.2294   -3.7259 C   0  0  0  0  0  0  0  0  0  0  0  0
   17.6155   71.3588   -4.7201 O   0  0  0  0  0  0  0  0  0  0  0  0
   15.9886   70.2594   -2.4538 O   0  0  0  0  0  0  0  0  0  0  0  0
   15.3669   68.5746   -4.5059 O   0  0  0  0  0  0  0  0  0  0  0  0
   17.0758   69.6605   -3.1595 C   0  0  1  0  0  0  0  0  0  0  0  0
   16.6257   69.2142   -4.5345 C   0  0  2  0  0  0  0  0  0  0  0  0
   18.0796   70.7557   -3.4928 C   0  0  1  0  0  0  0  0  0  0  0  0
   16.5974   70.5269   -5.2986 C   0  0  2  0  0  0  0  0  0  0  0  0
   15.3340   69.5789   -2.2300 H   0  0  0  0  0  0  0  0  0  0  0  0
   15.4375   67.7441   -4.0085 H   0  0  0  0  0  0  0  0  0  0  0  0
   14.6447   70.6284   -7.3365 O   0  0  0  0  0  0  0  0  0  0  0  0
   17.7756   69.8471  -10.6275 O   0  0  0  0  0  0  0  0  0  0  0  0
   16.8747   70.3534   -6.6964 N   0  0  0  0  0  0  0  0  0  0  0  0
   16.2058   70.2381   -8.9736 N   0  0  0  0  0  0  0  0  0  0  0  0
   15.8216   70.4227   -7.6389 C   0  0  0  0  0  0  0  0  0  0  0  0
   18.1769   70.1194   -7.1213 C   0  0  0  0  0  0  0  0  0  0  0  0
   18.5276   69.9456   -8.3971 C   0  0  0  0  0  0  0  0  0  0  0  0
   17.4872   70.0022   -9.4447 C   0  0  0  0  0  0  0  0  0  0  0  0
   15.4896   70.2800   -9.6478 H   0  0  0  0  0  0  0  0  0  0  0  0
   20.3873   72.7285   -2.4641 O   0  0  0  0  0  0  0  0  0  0  0  0
   20.8491   74.2706   -2.6129 P   0  0  2  0  0  0  0  0  0  0  0  0
   22.4619   74.1858   -2.5044 O   0  0  0  0  0  0  0  0  0  0  0  0
   20.2109   75.2027   -1.6239 O   0  0  0  0  0  0  0  0  0  0  0  0
   20.5635   74.6361   -4.1580 O   0  0  0  0  0  0  0  0  0  0  0  0
   19.1454   73.6919   -5.8032 O   0  0  0  0  0  0  0  0  0  0  0  0
   22.4566   74.7323   -8.0441 O   0  0  0  0  0  0  0  0  0  0  0  0
   22.7757   73.5080   -5.4108 O   0  0  0  0  0  0  0  0  0  0  0  0
   20.0389   76.3406   -8.1798 O   0  0  0  0  0  0  0  0  0  0  0  0
   21.5106   74.8558   -6.9822 C   0  0  2  0  0  0  0  0  0  0  0  0
   21.5439   73.5951   -6.1178 C   0  0  2  0  0  0  0  0  0  0  0  0
   20.1239   75.0388   -7.6031 C   0  0  1  0  0  0  0  0  0  0  0  0
   20.3913   73.5903   -5.1127 C   0  0  1  0  0  0  0  0  0  0  0  0
   19.0219   74.8957   -6.5574 C   0  0  1  0  0  0  0  0  0  0  0  0
   23.3455   74.6149   -7.6734 H   0  0  0  0  0  0  0  0  0  0  0  0
   23.5115   73.5109   -6.0425 H   0  0  0  0  0  0  0  0  0  0  0  0
   20.7351   76.4448   -8.8471 H   0  0  0  0  0  0  0  0  0  0  0  0
   17.1019   75.9574   -7.3867 O   0  0  0  0  0  0  0  0  0  0  0  0
   17.1844   73.6844   -7.5461 O   0  0  0  0  0  0  0  0  0  0  0  0
   17.6866   74.7466   -7.2109 C   0  0  0  0  0  0  0  0  0  0  0  0
  1  4  1  0
  1 24  1  0
  1  2  1  6
  1  3  2  0
 25 28  1  0
 25 24  1  0
 25 26  1  6
 25 27  2  0
  6 11  1  0
  6 12  1  0
 29 36  1  0
 29 37  1  0
  9  7  1  1
  7 13  1  0
 10  8  1  1
  8 14  1  0
  4  5  1  0
 36 28  1  1
 33 30  1  6
 30 38  1  0
 34 31  1  1
 31 39  1  0
 35 32  1  1
 32 40  1  0
 41 43  1  0
 15 19  2  0
 42 43  2  0
 16 22  2  0
 12 17  1  6
 17 19  1  0
 17 20  1  0
 18 19  1  0
 18 22  1  0
 18 23  1  0
  9 10  1  0
  9 11  1  0
 10 12  1  0
 11  5  1  6
 33 34  1  0
 33 35  1  0
 34 36  1  0
 35 37  1  0
 37 43  1  6
 20 21  2  0
 21 22  1  0
M  CHG  3   2  -1  26  -1  41  -1
M  END
>  <COMPND>  (132) 
    udp_gluA.pdb 

>  <AUTHOR>  (132) 
    GENERATED BY OPEN BABEL 3.1.1

>  <MASTER>  (132) 
        0    0    0    0    0    0    0    0   56    0   56    0

>  <minimizedAffinity>  (132) 
-7.65060

>  <CNNscore>  (132) 
0.4577337801

>  <CNNaffinity>  (132) 
4.0904283524

>  <CNN_VS>  (132) 
1.8723272085

>  <CNNaffinity_variance>  (132) 
0.8116998672

$$$$
133
     RDKit          3D

 43 45  0  0  0  0  0  0  0  0999 V2000
   21.2756   71.5063   -2.0928 P   0  0  2  0  0  0  0  0  0  0  0  0
   21.9313   71.9345   -3.5090 O   0  0  0  0  0  0  0  0  0  0  0  0
   21.6738   70.1478   -1.5952 O   0  0  0  0  0  0  0  0  0  0  0  0
   19.6893   71.7365   -2.3138 O   0  0  0  0  0  0  0  0  0  0  0  0
   19.1122   71.3328   -3.5420 C   0  0  0  0  0  0  0  0  0  0  0  0
   17.0675   71.8092   -4.7124 O   0  0  0  0  0  0  0  0  0  0  0  0
   15.6762   70.3399   -2.4994 O   0  0  0  0  0  0  0  0  0  0  0  0
   15.7485   68.4825   -4.4946 O   0  0  0  0  0  0  0  0  0  0  0  0
   16.9439   70.0770   -3.1015 C   0  0  1  0  0  0  0  0  0  0  0  0
   16.7556   69.4724   -4.4767 C   0  0  2  0  0  0  0  0  0  0  0  0
   17.5954   71.4139   -3.4277 C   0  0  1  0  0  0  0  0  0  0  0  0
   16.3935   70.6902   -5.3097 C   0  0  2  0  0  0  0  0  0  0  0  0
   15.2408   69.5004   -2.2820 H   0  0  0  0  0  0  0  0  0  0  0  0
   16.0265   67.7285   -3.9504 H   0  0  0  0  0  0  0  0  0  0  0  0
   14.6506   70.2273   -7.4833 O   0  0  0  0  0  0  0  0  0  0  0  0
   18.1282   70.2279  -10.5083 O   0  0  0  0  0  0  0  0  0  0  0  0
   16.8168   70.5652   -6.6758 N   0  0  0  0  0  0  0  0  0  0  0  0
   16.3844   70.2270   -8.9877 N   0  0  0  0  0  0  0  0  0  0  0  0
   15.8605   70.3330   -7.6926 C   0  0  0  0  0  0  0  0  0  0  0  0
   18.1643   70.6740   -6.9971 C   0  0  0  0  0  0  0  0  0  0  0  0
   18.6485   70.5708   -8.2363 C   0  0  0  0  0  0  0  0  0  0  0  0
   17.7161   70.3275   -9.3565 C   0  0  0  0  0  0  0  0  0  0  0  0
   15.7381   70.0634   -9.7122 H   0  0  0  0  0  0  0  0  0  0  0  0
   21.6877   72.7280   -1.1179 O   0  0  0  0  0  0  0  0  0  0  0  0
   21.9787   74.2865   -1.4341 P   0  0  2  0  0  0  0  0  0  0  0  0
   20.5878   74.7976   -2.0857 O   0  0  0  0  0  0  0  0  0  0  0  0
   23.1879   74.5256   -2.2912 O   0  0  0  0  0  0  0  0  0  0  0  0
   22.0342   74.9945    0.0144 O   0  0  0  0  0  0  0  0  0  0  0  0
   22.3255   74.0586    2.1704 O   0  0  0  0  0  0  0  0  0  0  0  0
   19.8474   77.2650    2.9737 O   0  0  0  0  0  0  0  0  0  0  0  0
   19.3868   75.5894    0.6254 O   0  0  0  0  0  0  0  0  0  0  0  0
   22.6735   77.4020    3.6408 O   0  0  0  0  0  0  0  0  0  0  0  0
   20.8736   76.5520    2.2834 C   0  0  2  0  0  0  0  0  0  0  0  0
   20.2909   75.2747    1.6781 C   0  0  2  0  0  0  0  0  0  0  0  0
   21.9723   76.2099    3.2921 C   0  0  1  0  0  0  0  0  0  0  0  0
   21.3988   74.3739    1.1305 C   0  0  1  0  0  0  0  0  0  0  0  0
   22.9687   75.2097    2.7128 C   0  0  1  0  0  0  0  0  0  0  0  0
   19.1379   77.4931    2.3525 H   0  0  0  0  0  0  0  0  0  0  0  0
   18.6813   76.1610    0.9657 H   0  0  0  0  0  0  0  0  0  0  0  0
   22.0507   78.0471    4.0107 H   0  0  0  0  0  0  0  0  0  0  0  0
   25.1435   74.7807    3.4794 O   0  0  0  0  0  0  0  0  0  0  0  0
   23.4194   74.1097    4.8124 O   0  0  0  0  0  0  0  0  0  0  0  0
   23.8312   74.6360    3.7894 C   0  0  0  0  0  0  0  0  0  0  0  0
  1  4  1  0
  1 24  1  0
  1  2  1  6
  1  3  2  0
 25 28  1  0
 25 24  1  0
 25 26  1  6
 25 27  2  0
  6 11  1  0
  6 12  1  0
 29 36  1  0
 29 37  1  0
  9  7  1  6
  7 13  1  0
 10  8  1  1
  8 14  1  0
  4  5  1  0
 36 28  1  6
 33 30  1  1
 30 38  1  0
 34 31  1  6
 31 39  1  0
 35 32  1  6
 32 40  1  0
 41 43  1  0
 15 19  2  0
 42 43  2  0
 16 22  2  0
 12 17  1  6
 17 19  1  0
 17 20  1  0
 18 19  1  0
 18 22  1  0
 18 23  1  0
  9 10  1  0
  9 11  1  0
 10 12  1  0
 11  5  1  6
 33 34  1  0
 33 35  1  0
 34 36  1  0
 35 37  1  0
 37 43  1  1
 20 21  2  0
 21 22  1  0
M  CHG  3   2  -1  26  -1  41  -1
M  END
>  <COMPND>  (133) 
    udp_gluA.pdb 

>  <AUTHOR>  (133) 
    GENERATED BY OPEN BABEL 3.1.1

>  <MASTER>  (133) 
        0    0    0    0    0    0    0    0   56    0   56    0

>  <minimizedAffinity>  (133) 
-7.17096

>  <CNNscore>  (133) 
0.4413594604

>  <CNNaffinity>  (133) 
4.3053140640

>  <CNN_VS>  (133) 
1.9001910686

>  <CNNaffinity_variance>  (133) 
0.0598017871

$$$$
134
     RDKit          3D

 43 45  0  0  0  0  0  0  0  0999 V2000
   21.1044   73.8493   -6.9538 P   0  0  2  0  0  0  0  0  0  0  0  0
   21.4971   75.3064   -7.5384 O   0  0  0  0  0  0  0  0  0  0  0  0
   22.1421   73.2202   -6.0711 O   0  0  0  0  0  0  0  0  0  0  0  0
   20.6927   73.0012   -8.2687 O   0  0  0  0  0  0  0  0  0  0  0  0
   19.8246   71.8934   -8.1143 C   0  0  0  0  0  0  0  0  0  0  0  0
   18.0119   70.6943   -9.1409 O   0  0  0  0  0  0  0  0  0  0  0  0
   17.3960   73.2427  -10.5962 O   0  0  0  0  0  0  0  0  0  0  0  0
   15.5458   73.2384   -8.5930 O   0  0  0  0  0  0  0  0  0  0  0  0
   17.8756   73.0559   -9.2644 C   0  0  1  0  0  0  0  0  0  0  0  0
   16.7609   72.5535   -8.3715 C   0  0  2  0  0  0  0  0  0  0  0  0
   18.8350   71.8736   -9.2722 C   0  0  1  0  0  0  0  0  0  0  0  0
   16.6840   71.0864   -8.7581 C   0  0  2  0  0  0  0  0  0  0  0  0
   16.7810   73.9930  -10.6164 H   0  0  0  0  0  0  0  0  0  0  0  0
   15.6461   74.1676   -8.3313 H   0  0  0  0  0  0  0  0  0  0  0  0
   13.9981   70.8391   -7.9208 O   0  0  0  0  0  0  0  0  0  0  0  0
   15.1220   67.8701   -4.5792 O   0  0  0  0  0  0  0  0  0  0  0  0
   16.2467   70.2557   -7.6720 N   0  0  0  0  0  0  0  0  0  0  0  0
   14.5606   69.3614   -6.2567 N   0  0  0  0  0  0  0  0  0  0  0  0
   14.8742   70.2028   -7.3322 C   0  0  0  0  0  0  0  0  0  0  0  0
   17.1718   69.5039   -6.9578 C   0  0  0  0  0  0  0  0  0  0  0  0
   16.8576   68.7064   -5.9351 C   0  0  0  0  0  0  0  0  0  0  0  0
   15.4453   68.5949   -5.5154 C   0  0  0  0  0  0  0  0  0  0  0  0
   13.6114   69.3097   -6.0002 H   0  0  0  0  0  0  0  0  0  0  0  0
   19.6820   74.1182   -6.2347 O   0  0  0  0  0  0  0  0  0  0  0  0
   19.3263   74.7306   -4.7813 P   0  0  2  0  0  0  0  0  0  0  0  0
   18.6624   76.1636   -5.1362 O   0  0  0  0  0  0  0  0  0  0  0  0
   20.4951   74.8062   -3.8421 O   0  0  0  0  0  0  0  0  0  0  0  0
   18.0964   73.8328   -4.2487 O   0  0  0  0  0  0  0  0  0  0  0  0
   18.3091   71.4845   -4.4713 O   0  0  0  0  0  0  0  0  0  0  0  0
   14.2948   71.8843   -3.5805 O   0  0  0  0  0  0  0  0  0  0  0  0
   15.5881   73.7236   -5.4456 O   0  0  0  0  0  0  0  0  0  0  0  0
   16.1543   70.9517   -1.5498 O   0  0  0  0  0  0  0  0  0  0  0  0
   15.6797   72.2280   -3.5375 C   0  0  2  0  0  0  0  0  0  0  0  0
   16.1772   72.5260   -4.9522 C   0  0  2  0  0  0  0  0  0  0  0  0
   16.4431   71.0420   -2.9437 C   0  0  1  0  0  0  0  0  0  0  0  0
   17.6992   72.6726   -4.9774 C   0  0  1  0  0  0  0  0  0  0  0  0
   17.9501   71.2049   -3.1201 C   0  0  1  0  0  0  0  0  0  0  0  0
   13.7895   72.6233   -3.9545 H   0  0  0  0  0  0  0  0  0  0  0  0
   14.6223   73.6377   -5.4322 H   0  0  0  0  0  0  0  0  0  0  0  0
   15.1982   70.8480   -1.4238 H   0  0  0  0  0  0  0  0  0  0  0  0
   19.9590   69.9984   -3.2198 O   0  0  0  0  0  0  0  0  0  0  0  0
   18.1452   68.9279   -2.3463 O   0  0  0  0  0  0  0  0  0  0  0  0
   18.6585   69.9187   -2.8440 C   0  0  0  0  0  0  0  0  0  0  0  0
  1  4  1  0
  1 24  1  0
  1  2  1  6
  1  3  2  0
 25 28  1  0
 25 24  1  0
 25 26  1  6
 25 27  2  0
  6 11  1  0
  6 12  1  0
 29 36  1  0
 29 37  1  0
  9  7  1  6
  7 13  1  0
 10  8  1  6
  8 14  1  0
  4  5  1  0
 36 28  1  1
 33 30  1  6
 30 38  1  0
 34 31  1  1
 31 39  1  0
 35 32  1  1
 32 40  1  0
 41 43  1  0
 15 19  2  0
 42 43  2  0
 16 22  2  0
 12 17  1  1
 17 19  1  0
 17 20  1  0
 18 19  1  0
 18 22  1  0
 18 23  1  0
  9 10  1  0
  9 11  1  0
 10 12  1  0
 11  5  1  1
 33 34  1  0
 33 35  1  0
 34 36  1  0
 35 37  1  0
 37 43  1  6
 20 21  2  0
 21 22  1  0
M  CHG  3   2  -1  26  -1  41  -1
M  END
>  <COMPND>  (134) 
    udp_gluA.pdb 

>  <AUTHOR>  (134) 
    GENERATED BY OPEN BABEL 3.1.1

>  <MASTER>  (134) 
        0    0    0    0    0    0    0    0   56    0   56    0

>  <minimizedAffinity>  (134) 
-6.38544

>  <CNNscore>  (134) 
0.4408391118

>  <CNNaffinity>  (134) 
3.9329361916

>  <CNN_VS>  (134) 
1.7337920666

>  <CNNaffinity_variance>  (134) 
0.9179043770

$$$$
135
     RDKit          3D

 43 45  0  0  0  0  0  0  0  0999 V2000
   21.2067   73.7523   -6.4772 P   0  0  2  0  0  0  0  0  0  0  0  0
   20.3705   72.3999   -6.1759 O   0  0  0  0  0  0  0  0  0  0  0  0
   22.2822   73.6142   -7.5145 O   0  0  0  0  0  0  0  0  0  0  0  0
   21.6994   74.2384   -5.0147 O   0  0  0  0  0  0  0  0  0  0  0  0
   22.6252   73.4315   -4.3104 C   0  0  0  0  0  0  0  0  0  0  0  0
   20.8461   73.3420   -2.6966 O   0  0  0  0  0  0  0  0  0  0  0  0
   22.9607   72.6735   -0.6784 O   0  0  0  0  0  0  0  0  0  0  0  0
   21.8612   70.2372   -1.2186 O   0  0  0  0  0  0  0  0  0  0  0  0
   22.8670   72.2888   -2.0502 C   0  0  1  0  0  0  0  0  0  0  0  0
   21.8027   71.2263   -2.2251 C   0  0  2  0  0  0  0  0  0  0  0  0
   22.2795   73.4591   -2.8271 C   0  0  1  0  0  0  0  0  0  0  0  0
   20.5254   72.0465   -2.1654 C   0  0  2  0  0  0  0  0  0  0  0  0
   23.3336   71.9415   -0.1618 H   0  0  0  0  0  0  0  0  0  0  0  0
   22.6924   69.7426   -1.2993 H   0  0  0  0  0  0  0  0  0  0  0  0
   17.8714   73.0113   -2.2129 O   0  0  0  0  0  0  0  0  0  0  0  0
   16.5487   69.7581   -5.1981 O   0  0  0  0  0  0  0  0  0  0  0  0
   19.4673   71.4705   -2.9462 N   0  0  0  0  0  0  0  0  0  0  0  0
   17.2150   71.3895   -3.6989 N   0  0  0  0  0  0  0  0  0  0  0  0
   18.1692   72.0315   -2.8986 C   0  0  0  0  0  0  0  0  0  0  0  0
   19.7204   70.3645   -3.7484 C   0  0  0  0  0  0  0  0  0  0  0  0
   18.8006   69.7635   -4.5057 C   0  0  0  0  0  0  0  0  0  0  0  0
   17.4187   70.2868   -4.5126 C   0  0  0  0  0  0  0  0  0  0  0  0
   16.3033   71.7608   -3.6807 H   0  0  0  0  0  0  0  0  0  0  0  0
   20.0500   74.8199   -6.8445 O   0  0  0  0  0  0  0  0  0  0  0  0
   18.5303   74.9637   -6.3119 P   0  0  2  0  0  0  0  0  0  0  0  0
   17.9746   76.2501   -7.1223 O   0  0  0  0  0  0  0  0  0  0  0  0
   18.4086   75.0731   -4.8196 O   0  0  0  0  0  0  0  0  0  0  0  0
   17.7500   73.7078   -6.9571 O   0  0  0  0  0  0  0  0  0  0  0  0
   18.4313   72.3887   -8.8023 O   0  0  0  0  0  0  0  0  0  0  0  0
   14.3183   72.0562   -9.0042 O   0  0  0  0  0  0  0  0  0  0  0  0
   15.5688   74.6300   -8.4159 O   0  0  0  0  0  0  0  0  0  0  0  0
   15.9129   69.8464   -7.9918 O   0  0  0  0  0  0  0  0  0  0  0  0
   15.5836   72.2046   -8.3601 C   0  0  2  0  0  0  0  0  0  0  0  0
   16.2686   73.4751   -8.8642 C   0  0  2  0  0  0  0  0  0  0  0  0
   16.4312   70.9748   -8.6937 C   0  0  1  0  0  0  0  0  0  0  0  0
   17.7154   73.5479   -8.3741 C   0  0  1  0  0  0  0  0  0  0  0  0
   17.8881   71.1753   -8.2868 C   0  0  1  0  0  0  0  0  0  0  0  0
   13.7623   72.8263   -8.8064 H   0  0  0  0  0  0  0  0  0  0  0  0
   14.6499   74.5903   -8.7231 H   0  0  0  0  0  0  0  0  0  0  0  0
   14.9860   69.7080   -8.2417 H   0  0  0  0  0  0  0  0  0  0  0  0
   19.2319   70.5462  -10.1034 O   0  0  0  0  0  0  0  0  0  0  0  0
   19.0181   69.0465   -8.3992 O   0  0  0  0  0  0  0  0  0  0  0  0
   18.7596   70.1294   -8.9025 C   0  0  0  0  0  0  0  0  0  0  0  0
  1  4  1  0
  1 24  1  0
  1  2  1  1
  1  3  2  0
 25 28  1  0
 25 24  1  0
 25 26  1  6
 25 27  2  0
  6 11  1  0
  6 12  1  0
 29 36  1  0
 29 37  1  0
  9  7  1  1
  7 13  1  0
 10  8  1  1
  8 14  1  0
  4  5  1  0
 36 28  1  1
 33 30  1  6
 30 38  1  0
 34 31  1  1
 31 39  1  0
 35 32  1  1
 32 40  1  0
 41 43  1  0
 15 19  2  0
 42 43  2  0
 16 22  2  0
 12 17  1  6
 17 19  1  0
 17 20  1  0
 18 19  1  0
 18 22  1  0
 18 23  1  0
  9 10  1  0
  9 11  1  0
 10 12  1  0
 11  5  1  6
 33 34  1  0
 33 35  1  0
 34 36  1  0
 35 37  1  0
 37 43  1  6
 20 21  2  0
 21 22  1  0
M  CHG  3   2  -1  26  -1  41  -1
M  END
>  <COMPND>  (135) 
    udp_gluA.pdb 

>  <AUTHOR>  (135) 
    GENERATED BY OPEN BABEL 3.1.1

>  <MASTER>  (135) 
        0    0    0    0    0    0    0    0   56    0   56    0

>  <minimizedAffinity>  (135) 
-7.19515

>  <CNNscore>  (135) 
0.4308791757

>  <CNNaffinity>  (135) 
4.0119090080

>  <CNN_VS>  (135) 
1.7286480665

>  <CNNaffinity_variance>  (135) 
0.8029156923

$$$$
136
     RDKit          3D

 43 45  0  0  0  0  0  0  0  0999 V2000
   16.4095   72.9922   -2.6531 P   0  0  2  0  0  0  0  0  0  0  0  0
   15.0731   73.0108   -3.5655 O   0  0  0  0  0  0  0  0  0  0  0  0
   16.1678   72.8581   -1.1781 O   0  0  0  0  0  0  0  0  0  0  0  0
   17.2141   74.3177   -3.1155 O   0  0  0  0  0  0  0  0  0  0  0  0
   17.4274   74.5309   -4.4988 C   0  0  0  0  0  0  0  0  0  0  0  0
   19.5731   75.2287   -3.6701 O   0  0  0  0  0  0  0  0  0  0  0  0
   19.9346   76.6101   -6.3069 O   0  0  0  0  0  0  0  0  0  0  0  0
   21.4030   74.3338   -6.6205 O   0  0  0  0  0  0  0  0  0  0  0  0
   19.2879   75.3705   -6.0173 C   0  0  1  0  0  0  0  0  0  0  0  0
   20.3162   74.3000   -5.7193 C   0  0  2  0  0  0  0  0  0  0  0  0
   18.5784   75.5126   -4.6777 C   0  0  1  0  0  0  0  0  0  0  0  0
   20.7252   74.6429   -4.2969 C   0  0  2  0  0  0  0  0  0  0  0  0
   20.3950   76.5438   -7.1586 H   0  0  0  0  0  0  0  0  0  0  0  0
   21.0912   74.1084   -7.5116 H   0  0  0  0  0  0  0  0  0  0  0  0
   23.1881   73.3018   -4.6315 O   0  0  0  0  0  0  0  0  0  0  0  0
   22.1582   70.2135   -1.3687 O   0  0  0  0  0  0  0  0  0  0  0  0
   21.1264   73.4857   -3.5480 N   0  0  0  0  0  0  0  0  0  0  0  0
   22.6724   71.7643   -3.0068 N   0  0  0  0  0  0  0  0  0  0  0  0
   22.3849   72.8874   -3.7937 C   0  0  0  0  0  0  0  0  0  0  0  0
   20.2789   72.9565   -2.5823 C   0  0  0  0  0  0  0  0  0  0  0  0
   20.5669   71.8855   -1.8401 C   0  0  0  0  0  0  0  0  0  0  0  0
   21.8617   71.2007   -2.0349 C   0  0  0  0  0  0  0  0  0  0  0  0
   23.5421   71.3294   -3.1612 H   0  0  0  0  0  0  0  0  0  0  0  0
   17.2773   71.7944   -3.3049 O   0  0  0  0  0  0  0  0  0  0  0  0
   16.8723   70.2767   -3.6873 P   0  0  2  0  0  0  0  0  0  0  0  0
   15.3383   70.1650   -3.1827 O   0  0  0  0  0  0  0  0  0  0  0  0
   17.7883   69.2327   -3.1174 O   0  0  0  0  0  0  0  0  0  0  0  0
   16.7726   70.2731   -5.2974 O   0  0  0  0  0  0  0  0  0  0  0  0
   17.8148   71.7524   -6.8253 O   0  0  0  0  0  0  0  0  0  0  0  0
   14.3950   70.6889   -8.8848 O   0  0  0  0  0  0  0  0  0  0  0  0
   14.2802   71.2710   -6.0243 O   0  0  0  0  0  0  0  0  0  0  0  0
   16.9626   69.5494   -9.6329 O   0  0  0  0  0  0  0  0  0  0  0  0
   15.4854   70.4988   -7.9833 C   0  0  2  0  0  0  0  0  0  0  0  0
   15.4043   71.5301   -6.8574 C   0  0  2  0  0  0  0  0  0  0  0  0
   16.7860   70.6720   -8.7709 C   0  0  1  0  0  0  0  0  0  0  0  0
   16.6727   71.5086   -6.0033 C   0  0  1  0  0  0  0  0  0  0  0  0
   17.9920   70.7675   -7.8410 C   0  0  1  0  0  0  0  0  0  0  0  0
   13.5575   70.5836   -8.4064 H   0  0  0  0  0  0  0  0  0  0  0  0
   13.4718   71.2829   -6.5598 H   0  0  0  0  0  0  0  0  0  0  0  0
   16.2016   69.4772  -10.2299 H   0  0  0  0  0  0  0  0  0  0  0  0
   19.9447   70.2197   -9.0192 O   0  0  0  0  0  0  0  0  0  0  0  0
   19.4684   72.4354   -8.7683 O   0  0  0  0  0  0  0  0  0  0  0  0
   19.1938   71.2598   -8.5796 C   0  0  0  0  0  0  0  0  0  0  0  0
  1  4  1  0
  1 24  1  0
  1  2  1  6
  1  3  2  0
 25 28  1  0
 25 24  1  0
 25 26  1  1
 25 27  2  0
  6 11  1  0
  6 12  1  0
 29 36  1  0
 29 37  1  0
  9  7  1  1
  7 13  1  0
 10  8  1  6
  8 14  1  0
  4  5  1  0
 36 28  1  6
 33 30  1  6
 30 38  1  0
 34 31  1  1
 31 39  1  0
 35 32  1  6
 32 40  1  0
 41 43  1  0
 15 19  2  0
 42 43  2  0
 16 22  2  0
 12 17  1  1
 17 19  1  0
 17 20  1  0
 18 19  1  0
 18 22  1  0
 18 23  1  0
  9 10  1  0
  9 11  1  0
 10 12  1  0
 11  5  1  6
 33 34  1  0
 33 35  1  0
 34 36  1  0
 35 37  1  0
 37 43  1  6
 20 21  2  0
 21 22  1  0
M  CHG  3   2  -1  26  -1  41  -1
M  END
>  <COMPND>  (136) 
    udp_gluA.pdb 

>  <AUTHOR>  (136) 
    GENERATED BY OPEN BABEL 3.1.1

>  <MASTER>  (136) 
        0    0    0    0    0    0    0    0   56    0   56    0

>  <minimizedAffinity>  (136) 
-7.25885

>  <CNNscore>  (136) 
0.4190505743

>  <CNNaffinity>  (136) 
3.8699746132

>  <CNN_VS>  (136) 
1.6217150688

>  <CNNaffinity_variance>  (136) 
0.8303765059

$$$$
137
     RDKit          3D

 43 45  0  0  0  0  0  0  0  0999 V2000
   18.0857   70.0245   -6.2076 P   0  0  2  0  0  0  0  0  0  0  0  0
   18.9225   69.5461   -7.5075 O   0  0  0  0  0  0  0  0  0  0  0  0
   17.1503   68.9961   -5.6425 O   0  0  0  0  0  0  0  0  0  0  0  0
   17.4020   71.4143   -6.6756 O   0  0  0  0  0  0  0  0  0  0  0  0
   16.0300   71.4090   -7.0248 C   0  0  0  0  0  0  0  0  0  0  0  0
   14.7454   72.6123   -8.6617 O   0  0  0  0  0  0  0  0  0  0  0  0
   17.1232   72.3262  -10.4660 O   0  0  0  0  0  0  0  0  0  0  0  0
   17.3632   74.8891   -9.5660 O   0  0  0  0  0  0  0  0  0  0  0  0
   17.0800   72.5291   -9.0534 C   0  0  1  0  0  0  0  0  0  0  0  0
   16.6930   73.9591   -8.7410 C   0  0  2  0  0  0  0  0  0  0  0  0
   15.8931   71.7504   -8.5030 C   0  0  1  0  0  0  0  0  0  0  0  0
   15.1930   73.9395   -8.9806 C   0  0  2  0  0  0  0  0  0  0  0  0
   17.8737   72.8143  -10.8404 H   0  0  0  0  0  0  0  0  0  0  0  0
   18.3145   74.8636   -9.3754 H   0  0  0  0  0  0  0  0  0  0  0  0
   13.3540   75.8544   -9.9437 O   0  0  0  0  0  0  0  0  0  0  0  0
   12.5677   77.4970   -5.7095 O   0  0  0  0  0  0  0  0  0  0  0  0
   14.4933   74.8799   -8.1518 N   0  0  0  0  0  0  0  0  0  0  0  0
   12.9649   76.6713   -7.8340 N   0  0  0  0  0  0  0  0  0  0  0  0
   13.5908   75.8003   -8.7354 C   0  0  0  0  0  0  0  0  0  0  0  0
   14.7024   74.8835   -6.7780 C   0  0  0  0  0  0  0  0  0  0  0  0
   14.0983   75.7199   -5.9316 C   0  0  0  0  0  0  0  0  0  0  0  0
   13.1409   76.7135   -6.4604 C   0  0  0  0  0  0  0  0  0  0  0  0
   12.3337   77.3226   -8.2172 H   0  0  0  0  0  0  0  0  0  0  0  0
   19.2431   70.5132   -5.1906 O   0  0  0  0  0  0  0  0  0  0  0  0
   19.2988   70.5297   -3.5750 P   0  0  2  0  0  0  0  0  0  0  0  0
   20.0871   69.1617   -3.2181 O   0  0  0  0  0  0  0  0  0  0  0  0
   17.9573   70.6608   -2.9138 O   0  0  0  0  0  0  0  0  0  0  0  0
   20.3413   71.7065   -3.2134 O   0  0  0  0  0  0  0  0  0  0  0  0
   22.3757   72.4556   -4.1668 O   0  0  0  0  0  0  0  0  0  0  0  0
   23.1548   72.8245   -0.1264 O   0  0  0  0  0  0  0  0  0  0  0  0
   21.7528   70.4774   -1.1560 O   0  0  0  0  0  0  0  0  0  0  0  0
   22.5853   75.1854   -1.7241 O   0  0  0  0  0  0  0  0  0  0  0  0
   22.3464   72.8252   -1.3031 C   0  0  2  0  0  0  0  0  0  0  0  0
   22.4057   71.4485   -1.9655 C   0  0  2  0  0  0  0  0  0  0  0  0
   22.8918   73.8958   -2.2508 C   0  0  1  0  0  0  0  0  0  0  0  0
   21.7428   71.4754   -3.3434 C   0  0  1  0  0  0  0  0  0  0  0  0
   22.2731   73.7769   -3.6406 C   0  0  1  0  0  0  0  0  0  0  0  0
   22.8269   72.1516    0.4909 H   0  0  0  0  0  0  0  0  0  0  0  0
   22.1681   70.4552   -0.2800 H   0  0  0  0  0  0  0  0  0  0  0  0
   22.9733   75.2739   -0.8395 H   0  0  0  0  0  0  0  0  0  0  0  0
   24.2942   74.8341   -4.1875 O   0  0  0  0  0  0  0  0  0  0  0  0
   22.5958   74.9908   -5.7007 O   0  0  0  0  0  0  0  0  0  0  0  0
   23.0361   74.5932   -4.6325 C   0  0  0  0  0  0  0  0  0  0  0  0
  1  4  1  0
  1 24  1  0
  1  2  1  6
  1  3  2  0
 25 28  1  0
 25 24  1  0
 25 26  1  1
 25 27  2  0
  6 11  1  0
  6 12  1  0
 29 36  1  0
 29 37  1  0
  9  7  1  6
  7 13  1  0
 10  8  1  6
  8 14  1  0
  4  5  1  0
 36 28  1  1
 33 30  1  1
 30 38  1  0
 34 31  1  1
 31 39  1  0
 35 32  1  1
 32 40  1  0
 41 43  1  0
 15 19  2  0
 42 43  2  0
 16 22  2  0
 12 17  1  1
 17 19  1  0
 17 20  1  0
 18 19  1  0
 18 22  1  0
 18 23  1  0
  9 10  1  0
  9 11  1  0
 10 12  1  0
 11  5  1  1
 33 34  1  0
 33 35  1  0
 34 36  1  0
 35 37  1  0
 37 43  1  6
 20 21  2  0
 21 22  1  0
M  CHG  3   2  -1  26  -1  41  -1
M  END
>  <COMPND>  (137) 
    udp_gluA.pdb 

>  <AUTHOR>  (137) 
    GENERATED BY OPEN BABEL 3.1.1

>  <MASTER>  (137) 
        0    0    0    0    0    0    0    0   56    0   56    0

>  <minimizedAffinity>  (137) 
-7.30483

>  <CNNscore>  (137) 
0.4120874405

>  <CNNaffinity>  (137) 
4.1880507469

>  <CNN_VS>  (137) 
1.7258430719

>  <CNNaffinity_variance>  (137) 
0.0390684903

$$$$
138
     RDKit          3D

 43 45  0  0  0  0  0  0  0  0999 V2000
   21.3197   73.8369   -6.4892 P   0  0  2  0  0  0  0  0  0  0  0  0
   22.4399   73.5702   -7.6262 O   0  0  0  0  0  0  0  0  0  0  0  0
   20.8383   75.2550   -6.3942 O   0  0  0  0  0  0  0  0  0  0  0  0
   21.9792   73.2271   -5.1434 O   0  0  0  0  0  0  0  0  0  0  0  0
   21.1191   72.7422   -4.1287 C   0  0  0  0  0  0  0  0  0  0  0  0
   23.0948   72.7882   -2.7605 O   0  0  0  0  0  0  0  0  0  0  0  0
   21.8023   70.6164   -1.1467 O   0  0  0  0  0  0  0  0  0  0  0  0
   21.3564   72.8350    0.3748 O   0  0  0  0  0  0  0  0  0  0  0  0
   21.2040   71.7410   -1.7914 C   0  0  1  0  0  0  0  0  0  0  0  0
   21.5034   73.0084   -1.0191 C   0  0  2  0  0  0  0  0  0  0  0  0
   21.9455   71.9822   -3.0992 C   0  0  1  0  0  0  0  0  0  0  0  0
   22.9395   73.2931   -1.4247 C   0  0  2  0  0  0  0  0  0  0  0  0
   21.3453   70.4428   -0.3085 H   0  0  0  0  0  0  0  0  0  0  0  0
   20.4251   72.6565    0.5819 H   0  0  0  0  0  0  0  0  0  0  0  0
   23.8670   74.7127    0.8338 O   0  0  0  0  0  0  0  0  0  0  0  0
   24.0718   78.6743   -1.5131 O   0  0  0  0  0  0  0  0  0  0  0  0
   23.2430   74.6962   -1.4176 N   0  0  0  0  0  0  0  0  0  0  0  0
   23.9671   76.6847   -0.3370 N   0  0  0  0  0  0  0  0  0  0  0  0
   23.7027   75.3129   -0.2300 C   0  0  0  0  0  0  0  0  0  0  0  0
   23.0866   75.4455   -2.5774 C   0  0  0  0  0  0  0  0  0  0  0  0
   23.3428   76.7522   -2.6639 C   0  0  0  0  0  0  0  0  0  0  0  0
   23.8262   77.4727   -1.4678 C   0  0  0  0  0  0  0  0  0  0  0  0
   24.2863   77.1365    0.4775 H   0  0  0  0  0  0  0  0  0  0  0  0
   20.1710   72.7588   -6.8516 O   0  0  0  0  0  0  0  0  0  0  0  0
   19.1220   72.6981   -8.0802 P   0  0  2  0  0  0  0  0  0  0  0  0
   19.8572   71.7273   -9.1467 O   0  0  0  0  0  0  0  0  0  0  0  0
   18.7381   74.0416   -8.6291 O   0  0  0  0  0  0  0  0  0  0  0  0
   17.8859   71.8256   -7.5202 O   0  0  0  0  0  0  0  0  0  0  0  0
   18.5844   69.9577   -6.2427 O   0  0  0  0  0  0  0  0  0  0  0  0
   14.5149   69.3057   -6.5294 O   0  0  0  0  0  0  0  0  0  0  0  0
   16.0334   70.2310   -8.8473 O   0  0  0  0  0  0  0  0  0  0  0  0
   15.6636   70.2907   -4.0472 O   0  0  0  0  0  0  0  0  0  0  0  0
   15.7070   70.0870   -6.4475 C   0  0  2  0  0  0  0  0  0  0  0  0
   16.6136   69.7631   -7.6352 C   0  0  2  0  0  0  0  0  0  0  0  0
   16.4092   69.7419   -5.1323 C   0  0  1  0  0  0  0  0  0  0  0  0
   17.9913   70.4043   -7.4626 C   0  0  1  0  0  0  0  0  0  0  0  0
   17.8239   70.3121   -5.0898 C   0  0  1  0  0  0  0  0  0  0  0  0
   14.0517   69.5081   -7.3575 H   0  0  0  0  0  0  0  0  0  0  0  0
   15.1588   69.8284   -8.9631 H   0  0  0  0  0  0  0  0  0  0  0  0
   14.7610   69.9359   -4.0628 H   0  0  0  0  0  0  0  0  0  0  0  0
   17.8132   69.4877   -2.8940 O   0  0  0  0  0  0  0  0  0  0  0  0
   19.7983   69.4362   -4.0146 O   0  0  0  0  0  0  0  0  0  0  0  0
   18.6072   69.7051   -3.9716 C   0  0  0  0  0  0  0  0  0  0  0  0
  1  4  1  0
  1 24  1  0
  1  2  1  6
  1  3  2  0
 25 28  1  0
 25 24  1  0
 25 26  1  6
 25 27  2  0
  6 11  1  0
  6 12  1  0
 29 36  1  0
 29 37  1  0
  9  7  1  1
  7 13  1  0
 10  8  1  1
  8 14  1  0
  4  5  1  0
 36 28  1  1
 33 30  1  6
 30 38  1  0
 34 31  1  6
 31 39  1  0
 35 32  1  1
 32 40  1  0
 41 43  1  0
 15 19  2  0
 42 43  2  0
 16 22  2  0
 12 17  1  6
 17 19  1  0
 17 20  1  0
 18 19  1  0
 18 22  1  0
 18 23  1  0
  9 10  1  0
  9 11  1  0
 10 12  1  0
 11  5  1  6
 33 34  1  0
 33 35  1  0
 34 36  1  0
 35 37  1  0
 37 43  1  1
 20 21  2  0
 21 22  1  0
M  CHG  3   2  -1  26  -1  41  -1
M  END
>  <COMPND>  (138) 
    udp_gluA.pdb 

>  <AUTHOR>  (138) 
    GENERATED BY OPEN BABEL 3.1.1

>  <MASTER>  (138) 
        0    0    0    0    0    0    0    0   56    0   56    0

>  <minimizedAffinity>  (138) 
-7.42007

>  <CNNscore>  (138) 
0.3813297451

>  <CNNaffinity>  (138) 
4.0036916733

>  <CNN_VS>  (138) 
1.5267267227

>  <CNNaffinity_variance>  (138) 
0.4548829198

$$$$
139
     RDKit          3D

 43 45  0  0  0  0  0  0  0  0999 V2000
   20.7249   73.8525   -7.0606 P   0  0  2  0  0  0  0  0  0  0  0  0
   22.1760   73.7471   -7.7690 O   0  0  0  0  0  0  0  0  0  0  0  0
   20.2152   72.5721   -6.4668 O   0  0  0  0  0  0  0  0  0  0  0  0
   19.7865   74.5234   -8.1951 O   0  0  0  0  0  0  0  0  0  0  0  0
   18.3850   74.3428   -8.1070 C   0  0  0  0  0  0  0  0  0  0  0  0
   17.6561   72.0985   -8.5647 O   0  0  0  0  0  0  0  0  0  0  0  0
   16.6251   73.1634  -11.1713 O   0  0  0  0  0  0  0  0  0  0  0  0
   14.3640   73.0080   -9.6550 O   0  0  0  0  0  0  0  0  0  0  0  0
   16.6549   73.7887   -9.8881 C   0  0  1  0  0  0  0  0  0  0  0  0
   15.5957   73.1888   -8.9879 C   0  0  2  0  0  0  0  0  0  0  0  0
   17.9413   73.3683   -9.1905 C   0  0  1  0  0  0  0  0  0  0  0  0
   16.2374   71.8741   -8.5785 C   0  0  2  0  0  0  0  0  0  0  0  0
   15.8120   73.4172  -11.6362 H   0  0  0  0  0  0  0  0  0  0  0  0
   13.9959   73.8736   -9.8944 H   0  0  0  0  0  0  0  0  0  0  0  0
   13.9888   70.2387   -8.0828 O   0  0  0  0  0  0  0  0  0  0  0  0
   14.7305   70.2838   -3.5340 O   0  0  0  0  0  0  0  0  0  0  0  0
   15.8201   71.4434   -7.2742 N   0  0  0  0  0  0  0  0  0  0  0  0
   14.3598   70.2636   -5.8176 N   0  0  0  0  0  0  0  0  0  0  0  0
   14.6757   70.6231   -7.1344 C   0  0  0  0  0  0  0  0  0  0  0  0
   16.5416   71.8313   -6.1518 C   0  0  0  0  0  0  0  0  0  0  0  0
   16.2283   71.4806   -4.9030 C   0  0  0  0  0  0  0  0  0  0  0  0
   15.0463   70.6251   -4.6697 C   0  0  0  0  0  0  0  0  0  0  0  0
   13.5659   69.6944   -5.6949 H   0  0  0  0  0  0  0  0  0  0  0  0
   20.9261   75.0542   -5.9983 O   0  0  0  0  0  0  0  0  0  0  0  0
   22.0207   75.2633   -4.8270 P   0  0  2  0  0  0  0  0  0  0  0  0
   21.4453   76.5339   -4.0056 O   0  0  0  0  0  0  0  0  0  0  0  0
   23.4278   75.4329   -5.3224 O   0  0  0  0  0  0  0  0  0  0  0  0
   21.8061   74.0075   -3.8373 O   0  0  0  0  0  0  0  0  0  0  0  0
   19.9077   72.6394   -3.4721 O   0  0  0  0  0  0  0  0  0  0  0  0
   21.6325   72.7035    0.2815 O   0  0  0  0  0  0  0  0  0  0  0  0
   21.4783   75.1424   -1.3193 O   0  0  0  0  0  0  0  0  0  0  0  0
   21.8844   70.3456   -1.4001 O   0  0  0  0  0  0  0  0  0  0  0  0
   21.6163   72.7264   -1.1458 C   0  0  2  0  0  0  0  0  0  0  0  0
   20.8042   73.9283   -1.6292 C   0  0  2  0  0  0  0  0  0  0  0  0
   20.9791   71.4230   -1.6326 C   0  0  1  0  0  0  0  0  0  0  0  0
   20.5711   73.8594   -3.1391 C   0  0  1  0  0  0  0  0  0  0  0  0
   20.6624   71.4808   -3.1242 C   0  0  1  0  0  0  0  0  0  0  0  0
   22.0332   73.5223    0.6137 H   0  0  0  0  0  0  0  0  0  0  0  0
   21.6298   75.1926   -0.3628 H   0  0  0  0  0  0  0  0  0  0  0  0
   22.0943   70.2979   -0.4543 H   0  0  0  0  0  0  0  0  0  0  0  0
   19.2808   69.7208   -2.4206 O   0  0  0  0  0  0  0  0  0  0  0  0
   19.4762   70.0553   -4.6676 O   0  0  0  0  0  0  0  0  0  0  0  0
   19.7567   70.3597   -3.5180 C   0  0  0  0  0  0  0  0  0  0  0  0
  1  4  1  0
  1 24  1  0
  1  2  1  6
  1  3  2  0
 25 28  1  0
 25 24  1  0
 25 26  1  1
 25 27  2  0
  6 11  1  0
  6 12  1  0
 29 36  1  0
 29 37  1  0
  9  7  1  6
  7 13  1  0
 10  8  1  6
  8 14  1  0
  4  5  1  0
 36 28  1  6
 33 30  1  1
 30 38  1  0
 34 31  1  6
 31 39  1  0
 35 32  1  6
 32 40  1  0
 41 43  1  0
 15 19  2  0
 42 43  2  0
 16 22  2  0
 12 17  1  1
 17 19  1  0
 17 20  1  0
 18 19  1  0
 18 22  1  0
 18 23  1  0
  9 10  1  0
  9 11  1  0
 10 12  1  0
 11  5  1  1
 33 34  1  0
 33 35  1  0
 34 36  1  0
 35 37  1  0
 37 43  1  1
 20 21  2  0
 21 22  1  0
M  CHG  3   2  -1  26  -1  41  -1
M  END
>  <COMPND>  (139) 
    udp_gluA.pdb 

>  <AUTHOR>  (139) 
    GENERATED BY OPEN BABEL 3.1.1

>  <MASTER>  (139) 
        0    0    0    0    0    0    0    0   56    0   56    0

>  <minimizedAffinity>  (139) 
-7.36383

>  <CNNscore>  (139) 
0.3723630011

>  <CNNaffinity>  (139) 
4.1706404686

>  <CNN_VS>  (139) 
1.5529922247

>  <CNNaffinity_variance>  (139) 
0.2166667879

$$$$
140
     RDKit          3D

 43 45  0  0  0  0  0  0  0  0999 V2000
   15.8507   74.4652   -4.9458 P   0  0  2  0  0  0  0  0  0  0  0  0
   14.7076   73.3298   -5.0978 O   0  0  0  0  0  0  0  0  0  0  0  0
   15.3739   75.7733   -4.3859 O   0  0  0  0  0  0  0  0  0  0  0  0
   16.5273   74.5343   -6.4140 O   0  0  0  0  0  0  0  0  0  0  0  0
   16.1415   73.5758   -7.3819 C   0  0  0  0  0  0  0  0  0  0  0  0
   17.3898   71.6060   -6.7993 O   0  0  0  0  0  0  0  0  0  0  0  0
   18.5838   71.7768   -9.5446 O   0  0  0  0  0  0  0  0  0  0  0  0
   16.6947   69.8321   -9.8365 O   0  0  0  0  0  0  0  0  0  0  0  0
   17.2574   72.0849   -9.1153 C   0  0  1  0  0  0  0  0  0  0  0  0
   16.4864   70.8113   -8.8404 C   0  0  2  0  0  0  0  0  0  0  0  0
   17.3454   72.7096   -7.7296 C   0  0  1  0  0  0  0  0  0  0  0  0
   17.0370   70.3952   -7.4870 C   0  0  2  0  0  0  0  0  0  0  0  0
   18.5533   71.3764  -10.4280 H   0  0  0  0  0  0  0  0  0  0  0  0
   16.3265   70.1440  -10.6785 H   0  0  0  0  0  0  0  0  0  0  0  0
   14.2455   70.8035   -7.6183 O   0  0  0  0  0  0  0  0  0  0  0  0
   13.4395   67.5769   -4.4272 O   0  0  0  0  0  0  0  0  0  0  0  0
   16.0747   69.6756   -6.7016 N   0  0  0  0  0  0  0  0  0  0  0  0
   13.8468   69.1968   -6.0281 N   0  0  0  0  0  0  0  0  0  0  0  0
   14.6953   69.9573   -6.8434 C   0  0  0  0  0  0  0  0  0  0  0  0
   16.4994   68.7026   -5.8050 C   0  0  0  0  0  0  0  0  0  0  0  0
   15.6787   67.9859   -5.0346 C   0  0  0  0  0  0  0  0  0  0  0  0
   14.2221   68.2190   -5.1211 C   0  0  0  0  0  0  0  0  0  0  0  0
   12.8821   69.3765   -6.1077 H   0  0  0  0  0  0  0  0  0  0  0  0
   16.9815   73.7253   -4.0590 O   0  0  0  0  0  0  0  0  0  0  0  0
   17.3879   73.8925   -2.5032 P   0  0  2  0  0  0  0  0  0  0  0  0
   16.1870   73.1369   -1.7240 O   0  0  0  0  0  0  0  0  0  0  0  0
   17.6061   75.3142   -2.0730 O   0  0  0  0  0  0  0  0  0  0  0  0
   18.6681   72.9302   -2.3089 O   0  0  0  0  0  0  0  0  0  0  0  0
   20.9629   73.4496   -2.5797 O   0  0  0  0  0  0  0  0  0  0  0  0
   20.8850   69.4411   -3.5765 O   0  0  0  0  0  0  0  0  0  0  0  0
   18.7852   71.2418   -4.5161 O   0  0  0  0  0  0  0  0  0  0  0  0
   21.9283   70.2833   -0.9971 O   0  0  0  0  0  0  0  0  0  0  0  0
   20.4719   70.6207   -2.8866 C   0  0  2  0  0  0  0  0  0  0  0  0
   19.9948   71.6641   -3.8971 C   0  0  2  0  0  0  0  0  0  0  0  0
   21.6713   71.1522   -2.0987 C   0  0  1  0  0  0  0  0  0  0  0  0
   19.7625   73.0154   -3.2199 C   0  0  1  0  0  0  0  0  0  0  0  0
   21.4071   72.5558   -1.5614 C   0  0  1  0  0  0  0  0  0  0  0  0
   20.1388   69.0854   -4.0844 H   0  0  0  0  0  0  0  0  0  0  0  0
   18.9253   70.3848   -4.9476 H   0  0  0  0  0  0  0  0  0  0  0  0
   22.0979   69.3865   -1.3255 H   0  0  0  0  0  0  0  0  0  0  0  0
   22.9516   74.3034   -1.8106 O   0  0  0  0  0  0  0  0  0  0  0  0
   23.3699   72.7709   -0.1749 O   0  0  0  0  0  0  0  0  0  0  0  0
   22.6745   73.1898   -1.0880 C   0  0  0  0  0  0  0  0  0  0  0  0
  1  4  1  0
  1 24  1  0
  1  2  1  6
  1  3  2  0
 25 28  1  0
 25 24  1  0
 25 26  1  1
 25 27  2  0
  6 11  1  0
  6 12  1  0
 29 36  1  0
 29 37  1  0
  9  7  1  1
  7 13  1  0
 10  8  1  6
  8 14  1  0
  4  5  1  0
 36 28  1  1
 33 30  1  6
 30 38  1  0
 34 31  1  1
 31 39  1  0
 35 32  1  1
 32 40  1  0
 41 43  1  0
 15 19  2  0
 42 43  2  0
 16 22  2  0
 12 17  1  1
 17 19  1  0
 17 20  1  0
 18 19  1  0
 18 22  1  0
 18 23  1  0
  9 10  1  0
  9 11  1  0
 10 12  1  0
 11  5  1  1
 33 34  1  0
 33 35  1  0
 34 36  1  0
 35 37  1  0
 37 43  1  6
 20 21  2  0
 21 22  1  0
M  CHG  3   2  -1  26  -1  41  -1
M  END
>  <COMPND>  (140) 
    udp_gluA.pdb 

>  <AUTHOR>  (140) 
    GENERATED BY OPEN BABEL 3.1.1

>  <MASTER>  (140) 
        0    0    0    0    0    0    0    0   56    0   56    0

>  <minimizedAffinity>  (140) 
-7.40717

>  <CNNscore>  (140) 
0.3532621264

>  <CNNaffinity>  (140) 
3.9710166454

>  <CNN_VS>  (140) 
1.4028097391

>  <CNNaffinity_variance>  (140) 
0.6448838711

$$$$
141
     RDKit          3D

 43 45  0  0  0  0  0  0  0  0999 V2000
   19.1572   73.7401   -7.8912 P   0  0  2  0  0  0  0  0  0  0  0  0
   18.1985   73.2007   -6.7043 O   0  0  0  0  0  0  0  0  0  0  0  0
   18.8407   75.1222   -8.3825 O   0  0  0  0  0  0  0  0  0  0  0  0
   19.0950   72.5674   -9.0042 O   0  0  0  0  0  0  0  0  0  0  0  0
   19.8093   71.3688   -8.7641 C   0  0  0  0  0  0  0  0  0  0  0  0
   18.8045   69.2703   -8.1605 O   0  0  0  0  0  0  0  0  0  0  0  0
   17.1101   69.5882  -10.6140 O   0  0  0  0  0  0  0  0  0  0  0  0
   15.4171   70.3523   -8.6175 O   0  0  0  0  0  0  0  0  0  0  0  0
   17.5796   70.5839   -9.7048 C   0  0  1  0  0  0  0  0  0  0  0  0
   16.8039   70.5156   -8.4063 C   0  0  2  0  0  0  0  0  0  0  0  0
   18.9814   70.1901   -9.2596 C   0  0  1  0  0  0  0  0  0  0  0  0
   17.4368   69.3150   -7.7237 C   0  0  2  0  0  0  0  0  0  0  0  0
   16.2158   69.8182  -10.9123 H   0  0  0  0  0  0  0  0  0  0  0  0
   15.0613   71.1427   -9.0541 H   0  0  0  0  0  0  0  0  0  0  0  0
   15.2115   68.6395   -6.1211 O   0  0  0  0  0  0  0  0  0  0  0  0
   17.4352   69.7572   -2.2417 O   0  0  0  0  0  0  0  0  0  0  0  0
   17.4070   69.4198   -6.2923 N   0  0  0  0  0  0  0  0  0  0  0  0
   16.3208   69.1978   -4.1906 N   0  0  0  0  0  0  0  0  0  0  0  0
   16.2390   69.0549   -5.5820 C   0  0  0  0  0  0  0  0  0  0  0  0
   18.5257   69.8778   -5.6069 C   0  0  0  0  0  0  0  0  0  0  0  0
   18.5888   70.0086   -4.2804 C   0  0  0  0  0  0  0  0  0  0  0  0
   17.4107   69.6494   -3.4640 C   0  0  0  0  0  0  0  0  0  0  0  0
   15.5192   68.9518   -3.6747 H   0  0  0  0  0  0  0  0  0  0  0  0
   20.6384   73.5702   -7.2667 O   0  0  0  0  0  0  0  0  0  0  0  0
   21.4624   74.4901   -6.2234 P   0  0  2  0  0  0  0  0  0  0  0  0
   22.6520   73.5111   -5.7266 O   0  0  0  0  0  0  0  0  0  0  0  0
   20.6278   75.0614   -5.1139 O   0  0  0  0  0  0  0  0  0  0  0  0
   22.1991   75.5922   -7.1426 O   0  0  0  0  0  0  0  0  0  0  0  0
   23.1324   77.5314   -6.1538 O   0  0  0  0  0  0  0  0  0  0  0  0
   22.8875   78.6470  -10.1241 O   0  0  0  0  0  0  0  0  0  0  0  0
   20.6977   77.1845   -8.8591 O   0  0  0  0  0  0  0  0  0  0  0  0
   25.4543   77.9222   -8.9678 O   0  0  0  0  0  0  0  0  0  0  0  0
   23.0525   77.7418   -9.0327 C   0  0  2  0  0  0  0  0  0  0  0  0
   21.7969   77.7574   -8.1605 C   0  0  2  0  0  0  0  0  0  0  0  0
   24.2691   78.1948   -8.2224 C   0  0  1  0  0  0  0  0  0  0  0  0
   22.0223   76.9798   -6.8631 C   0  0  1  0  0  0  0  0  0  0  0  0
   24.3534   77.4616   -6.8868 C   0  0  1  0  0  0  0  0  0  0  0  0
   22.1198   78.3790  -10.6535 H   0  0  0  0  0  0  0  0  0  0  0  0
   20.5492   77.6729   -9.6836 H   0  0  0  0  0  0  0  0  0  0  0  0
   25.4132   78.3830   -9.8203 H   0  0  0  0  0  0  0  0  0  0  0  0
   26.1332   77.2139   -5.3793 O   0  0  0  0  0  0  0  0  0  0  0  0
   25.4046   79.3354   -5.7889 O   0  0  0  0  0  0  0  0  0  0  0  0
   25.3305   78.1301   -5.9754 C   0  0  0  0  0  0  0  0  0  0  0  0
  1  4  1  0
  1 24  1  0
  1  2  1  1
  1  3  2  0
 25 28  1  0
 25 24  1  0
 25 26  1  1
 25 27  2  0
  6 11  1  0
  6 12  1  0
 29 36  1  0
 29 37  1  0
  9  7  1  6
  7 13  1  0
 10  8  1  6
  8 14  1  0
  4  5  1  0
 36 28  1  6
 33 30  1  6
 30 38  1  0
 34 31  1  6
 31 39  1  0
 35 32  1  6
 32 40  1  0
 41 43  1  0
 15 19  2  0
 42 43  2  0
 16 22  2  0
 12 17  1  1
 17 19  1  0
 17 20  1  0
 18 19  1  0
 18 22  1  0
 18 23  1  0
  9 10  1  0
  9 11  1  0
 10 12  1  0
 11  5  1  1
 33 34  1  0
 33 35  1  0
 34 36  1  0
 35 37  1  0
 37 43  1  1
 20 21  2  0
 21 22  1  0
M  CHG  3   2  -1  26  -1  41  -1
M  END
>  <COMPND>  (141) 
    udp_gluA.pdb 

>  <AUTHOR>  (141) 
    GENERATED BY OPEN BABEL 3.1.1

>  <MASTER>  (141) 
        0    0    0    0    0    0    0    0   56    0   56    0

>  <minimizedAffinity>  (141) 
-6.84237

>  <CNNscore>  (141) 
0.8129191995

>  <CNNaffinity>  (141) 
4.5780367851

>  <CNN_VS>  (141) 
3.7215740681

>  <CNNaffinity_variance>  (141) 
0.0462790653

$$$$
142
     RDKit          3D

 43 45  0  0  0  0  0  0  0  0999 V2000
   18.8910   74.1354   -7.6064 P   0  0  2  0  0  0  0  0  0  0  0  0
   17.4051   73.9992   -6.9799 O   0  0  0  0  0  0  0  0  0  0  0  0
   19.2704   75.5204   -8.0419 O   0  0  0  0  0  0  0  0  0  0  0  0
   18.9322   73.0005   -8.7589 O   0  0  0  0  0  0  0  0  0  0  0  0
   19.8049   71.8983   -8.5916 C   0  0  0  0  0  0  0  0  0  0  0  0
   19.0094   69.6862   -8.0903 O   0  0  0  0  0  0  0  0  0  0  0  0
   17.4241   69.8826  -10.6280 O   0  0  0  0  0  0  0  0  0  0  0  0
   15.5519   70.4007   -8.7143 O   0  0  0  0  0  0  0  0  0  0  0  0
   17.7303   70.8987   -9.6729 C   0  0  1  0  0  0  0  0  0  0  0  0
   16.8986   70.7099   -8.4219 C   0  0  2  0  0  0  0  0  0  0  0  0
   19.1413   70.6496   -9.1579 C   0  0  1  0  0  0  0  0  0  0  0  0
   17.6238   69.5681   -7.7304 C   0  0  2  0  0  0  0  0  0  0  0  0
   16.5271   70.0208  -10.9713 H   0  0  0  0  0  0  0  0  0  0  0  0
   15.1341   71.1588   -9.1534 H   0  0  0  0  0  0  0  0  0  0  0  0
   15.3346   68.7673   -6.2831 O   0  0  0  0  0  0  0  0  0  0  0  0
   17.2826   69.8491   -2.2484 O   0  0  0  0  0  0  0  0  0  0  0  0
   17.5058   69.6298   -6.3010 N   0  0  0  0  0  0  0  0  0  0  0  0
   16.3066   69.3078   -4.2750 N   0  0  0  0  0  0  0  0  0  0  0  0
   16.3123   69.2029   -5.6722 C   0  0  0  0  0  0  0  0  0  0  0  0
   18.5644   70.1070   -5.5376 C   0  0  0  0  0  0  0  0  0  0  0  0
   18.5442   70.2009   -4.2066 C   0  0  0  0  0  0  0  0  0  0  0  0
   17.3342   69.7764   -3.4724 C   0  0  0  0  0  0  0  0  0  0  0  0
   15.4856   69.0185   -3.8150 H   0  0  0  0  0  0  0  0  0  0  0  0
   19.8315   73.5121   -6.4489 O   0  0  0  0  0  0  0  0  0  0  0  0
   21.2724   73.9807   -5.8851 P   0  0  2  0  0  0  0  0  0  0  0  0
   21.0320   75.5350   -5.5021 O   0  0  0  0  0  0  0  0  0  0  0  0
   22.4111   73.7469   -6.8352 O   0  0  0  0  0  0  0  0  0  0  0  0
   21.4202   73.2296   -4.4651 O   0  0  0  0  0  0  0  0  0  0  0  0
   23.5067   74.0438   -3.6951 O   0  0  0  0  0  0  0  0  0  0  0  0
   22.0964   72.0572   -0.3586 O   0  0  0  0  0  0  0  0  0  0  0  0
   21.7959   70.8846   -3.0174 O   0  0  0  0  0  0  0  0  0  0  0  0
   22.0254   74.9614   -0.4662 O   0  0  0  0  0  0  0  0  0  0  0  0
   21.9944   72.8165   -1.5632 C   0  0  2  0  0  0  0  0  0  0  0  0
   22.5982   72.0219   -2.7216 C   0  0  2  0  0  0  0  0  0  0  0  0
   22.7579   74.1274   -1.3620 C   0  0  1  0  0  0  0  0  0  0  0  0
   22.7161   72.8882   -3.9764 C   0  0  1  0  0  0  0  0  0  0  0  0
   22.9430   74.8723   -2.6808 C   0  0  1  0  0  0  0  0  0  0  0  0
   21.6186   71.2193   -0.4629 H   0  0  0  0  0  0  0  0  0  0  0  0
   21.7166   70.3306   -2.2255 H   0  0  0  0  0  0  0  0  0  0  0  0
   21.9005   74.4989    0.3772 H   0  0  0  0  0  0  0  0  0  0  0  0
   25.0056   75.7524   -3.3684 O   0  0  0  0  0  0  0  0  0  0  0  0
   23.8563   76.9155   -1.7792 O   0  0  0  0  0  0  0  0  0  0  0  0
   23.9550   75.9621   -2.5370 C   0  0  0  0  0  0  0  0  0  0  0  0
  1  4  1  0
  1 24  1  0
  1  2  1  1
  1  3  2  0
 25 28  1  0
 25 24  1  0
 25 26  1  1
 25 27  2  0
  6 11  1  0
  6 12  1  0
 29 36  1  0
 29 37  1  0
  9  7  1  6
  7 13  1  0
 10  8  1  6
  8 14  1  0
  4  5  1  0
 36 28  1  1
 33 30  1  1
 30 38  1  0
 34 31  1  6
 31 39  1  0
 35 32  1  1
 32 40  1  0
 41 43  1  0
 15 19  2  0
 42 43  2  0
 16 22  2  0
 12 17  1  1
 17 19  1  0
 17 20  1  0
 18 19  1  0
 18 22  1  0
 18 23  1  0
  9 10  1  0
  9 11  1  0
 10 12  1  0
 11  5  1  1
 33 34  1  0
 33 35  1  0
 34 36  1  0
 35 37  1  0
 37 43  1  1
 20 21  2  0
 21 22  1  0
M  CHG  3   2  -1  26  -1  41  -1
M  END
>  <COMPND>  (142) 
    udp_gluA.pdb 

>  <AUTHOR>  (142) 
    GENERATED BY OPEN BABEL 3.1.1

>  <MASTER>  (142) 
        0    0    0    0    0    0    0    0   56    0   56    0

>  <minimizedAffinity>  (142) 
-7.87882

>  <CNNscore>  (142) 
0.8054140210

>  <CNNaffinity>  (142) 
4.6730461121

>  <CNN_VS>  (142) 
3.7637369633

>  <CNNaffinity_variance>  (142) 
0.3402189314

$$$$
143
     RDKit          3D

 43 45  0  0  0  0  0  0  0  0999 V2000
   19.2510   73.6416   -7.7636 P   0  0  2  0  0  0  0  0  0  0  0  0
   18.1766   73.1361   -6.6642 O   0  0  0  0  0  0  0  0  0  0  0  0
   19.0679   75.0582   -8.2238 O   0  0  0  0  0  0  0  0  0  0  0  0
   19.1834   72.5127   -8.9207 O   0  0  0  0  0  0  0  0  0  0  0  0
   19.8802   71.2966   -8.7204 C   0  0  0  0  0  0  0  0  0  0  0  0
   18.7910   69.2368   -8.1303 O   0  0  0  0  0  0  0  0  0  0  0  0
   17.1632   69.5999  -10.6223 O   0  0  0  0  0  0  0  0  0  0  0  0
   15.4536   70.4315   -8.6674 O   0  0  0  0  0  0  0  0  0  0  0  0
   17.6463   70.5836   -9.7072 C   0  0  1  0  0  0  0  0  0  0  0  0
   16.8402   70.5484   -8.4261 C   0  0  2  0  0  0  0  0  0  0  0  0
   19.0236   70.1444   -9.2291 C   0  0  1  0  0  0  0  0  0  0  0  0
   17.4163   69.3304   -7.7243 C   0  0  2  0  0  0  0  0  0  0  0  0
   16.2842   69.8588  -10.9415 H   0  0  0  0  0  0  0  0  0  0  0  0
   15.1348   71.2314   -9.1152 H   0  0  0  0  0  0  0  0  0  0  0  0
   15.1070   68.8307   -6.1771 O   0  0  0  0  0  0  0  0  0  0  0  0
   17.3099   69.7956   -2.2452 O   0  0  0  0  0  0  0  0  0  0  0  0
   17.3585   69.4435   -6.2943 N   0  0  0  0  0  0  0  0  0  0  0  0
   16.2061   69.3127   -4.2204 N   0  0  0  0  0  0  0  0  0  0  0  0
   16.1488   69.1702   -5.6130 C   0  0  0  0  0  0  0  0  0  0  0  0
   18.4908   69.8194   -5.5819 C   0  0  0  0  0  0  0  0  0  0  0  0
   18.5300   69.9508   -4.2546 C   0  0  0  0  0  0  0  0  0  0  0  0
   17.3081   69.6846   -3.4675 C   0  0  0  0  0  0  0  0  0  0  0  0
   15.3755   69.1298   -3.7244 H   0  0  0  0  0  0  0  0  0  0  0  0
   20.6697   73.3442   -7.0482 O   0  0  0  0  0  0  0  0  0  0  0  0
   21.1628   73.5854   -5.5275 P   0  0  2  0  0  0  0  0  0  0  0  0
   22.7579   73.8099   -5.6872 O   0  0  0  0  0  0  0  0  0  0  0  0
   20.7850   72.4873   -4.5761 O   0  0  0  0  0  0  0  0  0  0  0  0
   20.5843   75.0394   -5.1355 O   0  0  0  0  0  0  0  0  0  0  0  0
   20.3100   75.3756   -2.8072 O   0  0  0  0  0  0  0  0  0  0  0  0
   18.4387   78.7133   -4.3647 O   0  0  0  0  0  0  0  0  0  0  0  0
   18.0495   76.0902   -5.5904 O   0  0  0  0  0  0  0  0  0  0  0  0
   21.0791   78.9447   -3.1709 O   0  0  0  0  0  0  0  0  0  0  0  0
   19.3994   77.6582   -4.3234 C   0  0  2  0  0  0  0  0  0  0  0  0
   18.6792   76.3096   -4.3334 C   0  0  2  0  0  0  0  0  0  0  0  0
   20.2187   77.8146   -3.0404 C   0  0  1  0  0  0  0  0  0  0  0  0
   19.6564   75.1655   -4.0594 C   0  0  1  0  0  0  0  0  0  0  0  0
   21.0733   76.5794   -2.7711 C   0  0  1  0  0  0  0  0  0  0  0  0
   17.9060   78.6345   -5.1718 H   0  0  0  0  0  0  0  0  0  0  0  0
   17.4282   76.8126   -5.7708 H   0  0  0  0  0  0  0  0  0  0  0  0
   20.5476   79.7377   -3.3427 H   0  0  0  0  0  0  0  0  0  0  0  0
   22.0827   75.3755   -1.0295 O   0  0  0  0  0  0  0  0  0  0  0  0
   21.6173   77.5736   -0.6411 O   0  0  0  0  0  0  0  0  0  0  0  0
   21.6062   76.5971   -1.3754 C   0  0  0  0  0  0  0  0  0  0  0  0
  1  4  1  0
  1 24  1  0
  1  2  1  1
  1  3  2  0
 25 28  1  0
 25 24  1  0
 25 26  1  6
 25 27  2  0
  6 11  1  0
  6 12  1  0
 29 36  1  0
 29 37  1  0
  9  7  1  6
  7 13  1  0
 10  8  1  6
  8 14  1  0
  4  5  1  0
 36 28  1  6
 33 30  1  1
 30 38  1  0
 34 31  1  6
 31 39  1  0
 35 32  1  6
 32 40  1  0
 41 43  1  0
 15 19  2  0
 42 43  2  0
 16 22  2  0
 12 17  1  1
 17 19  1  0
 17 20  1  0
 18 19  1  0
 18 22  1  0
 18 23  1  0
  9 10  1  0
  9 11  1  0
 10 12  1  0
 11  5  1  1
 33 34  1  0
 33 35  1  0
 34 36  1  0
 35 37  1  0
 37 43  1  1
 20 21  2  0
 21 22  1  0
M  CHG  3   2  -1  26  -1  41  -1
M  END
>  <COMPND>  (143) 
    udp_gluA.pdb 

>  <AUTHOR>  (143) 
    GENERATED BY OPEN BABEL 3.1.1

>  <MASTER>  (143) 
        0    0    0    0    0    0    0    0   56    0   56    0

>  <minimizedAffinity>  (143) 
-6.53525

>  <CNNscore>  (143) 
0.7547997832

>  <CNNaffinity>  (143) 
4.4043951035

>  <CNN_VS>  (143) 
3.3244364262

>  <CNNaffinity_variance>  (143) 
0.1845752895

$$$$
144
     RDKit          3D

 43 45  0  0  0  0  0  0  0  0999 V2000
   18.6737   73.8678   -7.6886 P   0  0  2  0  0  0  0  0  0  0  0  0
   17.2619   73.6856   -6.9189 O   0  0  0  0  0  0  0  0  0  0  0  0
   18.8528   75.1879   -8.3794 O   0  0  0  0  0  0  0  0  0  0  0  0
   18.7712   72.5600   -8.6362 O   0  0  0  0  0  0  0  0  0  0  0  0
   19.3026   71.3670   -8.0895 C   0  0  0  0  0  0  0  0  0  0  0  0
   18.0545   69.3911   -7.5277 O   0  0  0  0  0  0  0  0  0  0  0  0
   16.9577   69.5168  -10.3157 O   0  0  0  0  0  0  0  0  0  0  0  0
   14.9260   70.5637   -8.8283 O   0  0  0  0  0  0  0  0  0  0  0  0
   17.2834   70.5831   -9.4238 C   0  0  1  0  0  0  0  0  0  0  0  0
   16.2416   70.6884   -8.3302 C   0  0  2  0  0  0  0  0  0  0  0  0
   18.5260   70.1789   -8.6423 C   0  0  1  0  0  0  0  0  0  0  0  0
   16.6307   69.5419   -7.4126 C   0  0  2  0  0  0  0  0  0  0  0  0
   16.1666   69.7519  -10.8261 H   0  0  0  0  0  0  0  0  0  0  0  0
   14.7264   71.3173   -9.4064 H   0  0  0  0  0  0  0  0  0  0  0  0
   14.1284   68.9578   -6.2405 O   0  0  0  0  0  0  0  0  0  0  0  0
   15.4659   70.5796   -2.1387 O   0  0  0  0  0  0  0  0  0  0  0  0
   16.2980   69.8011   -6.0404 N   0  0  0  0  0  0  0  0  0  0  0  0
   14.7966   69.7670   -4.1990 N   0  0  0  0  0  0  0  0  0  0  0  0
   15.0123   69.4699   -5.5511 C   0  0  0  0  0  0  0  0  0  0  0  0
   17.2396   70.3751   -5.1950 C   0  0  0  0  0  0  0  0  0  0  0  0
   17.0194   70.6523   -3.9083 C   0  0  0  0  0  0  0  0  0  0  0  0
   15.7014   70.3381   -3.3188 C   0  0  0  0  0  0  0  0  0  0  0  0
   13.9081   69.5473   -3.8361 H   0  0  0  0  0  0  0  0  0  0  0  0
   19.7600   73.5603   -6.5319 O   0  0  0  0  0  0  0  0  0  0  0  0
   21.2514   74.1379   -6.2957 P   0  0  2  0  0  0  0  0  0  0  0  0
   21.0451   75.7411   -6.3818 O   0  0  0  0  0  0  0  0  0  0  0  0
   22.2796   73.5949   -7.2454 O   0  0  0  0  0  0  0  0  0  0  0  0
   21.5600   73.8501   -4.7387 O   0  0  0  0  0  0  0  0  0  0  0  0
   20.4666   72.3620   -3.2557 O   0  0  0  0  0  0  0  0  0  0  0  0
   21.7039   75.3513   -0.6864 O   0  0  0  0  0  0  0  0  0  0  0  0
   20.5760   76.0162   -3.2979 O   0  0  0  0  0  0  0  0  0  0  0  0
   23.1152   72.8108   -0.7565 O   0  0  0  0  0  0  0  0  0  0  0  0
   21.7805   74.5037   -1.8325 C   0  0  2  0  0  0  0  0  0  0  0  0
   20.5488   74.7198   -2.7121 C   0  0  2  0  0  0  0  0  0  0  0  0
   21.8391   73.0541   -1.3456 C   0  0  1  0  0  0  0  0  0  0  0  0
   20.4799   73.6721   -3.8241 C   0  0  1  0  0  0  0  0  0  0  0  0
   21.6374   72.0715   -2.4955 C   0  0  1  0  0  0  0  0  0  0  0  0
   21.6656   76.2779   -0.9713 H   0  0  0  0  0  0  0  0  0  0  0  0
   20.6199   76.6860   -2.5980 H   0  0  0  0  0  0  0  0  0  0  0  0
   23.2561   73.4298   -0.0232 H   0  0  0  0  0  0  0  0  0  0  0  0
   20.2479   70.1824   -2.5428 O   0  0  0  0  0  0  0  0  0  0  0  0
   22.0583   70.1077   -1.1585 O   0  0  0  0  0  0  0  0  0  0  0  0
   21.3682   70.6963   -1.9772 C   0  0  0  0  0  0  0  0  0  0  0  0
  1  4  1  0
  1 24  1  0
  1  2  1  1
  1  3  2  0
 25 28  1  0
 25 24  1  0
 25 26  1  1
 25 27  2  0
  6 11  1  0
  6 12  1  0
 29 36  1  0
 29 37  1  0
  9  7  1  6
  7 13  1  0
 10  8  1  6
  8 14  1  0
  4  5  1  0
 36 28  1  6
 33 30  1  1
 30 38  1  0
 34 31  1  6
 31 39  1  0
 35 32  1  6
 32 40  1  0
 41 43  1  0
 15 19  2  0
 42 43  2  0
 16 22  2  0
 12 17  1  1
 17 19  1  0
 17 20  1  0
 18 19  1  0
 18 22  1  0
 18 23  1  0
  9 10  1  0
  9 11  1  0
 10 12  1  0
 11  5  1  1
 33 34  1  0
 33 35  1  0
 34 36  1  0
 35 37  1  0
 37 43  1  1
 20 21  2  0
 21 22  1  0
M  CHG  3   2  -1  26  -1  41  -1
M  END
>  <COMPND>  (144) 
    udp_gluA.pdb 

>  <AUTHOR>  (144) 
    GENERATED BY OPEN BABEL 3.1.1

>  <MASTER>  (144) 
        0    0    0    0    0    0    0    0   56    0   56    0

>  <minimizedAffinity>  (144) 
-7.93286

>  <CNNscore>  (144) 
0.7308070660

>  <CNNaffinity>  (144) 
4.6300787926

>  <CNN_VS>  (144) 
3.3836944103

>  <CNNaffinity_variance>  (144) 
0.3669089675

$$$$
145
     RDKit          3D

 43 45  0  0  0  0  0  0  0  0999 V2000
   19.2861   73.7374   -7.7267 P   0  0  2  0  0  0  0  0  0  0  0  0
   18.0655   73.3099   -6.7540 O   0  0  0  0  0  0  0  0  0  0  0  0
   19.2635   75.1676   -8.1805 O   0  0  0  0  0  0  0  0  0  0  0  0
   19.2532   72.6265   -8.9026 O   0  0  0  0  0  0  0  0  0  0  0  0
   19.9648   71.4176   -8.7108 C   0  0  0  0  0  0  0  0  0  0  0  0
   18.8997   69.3363   -8.1528 O   0  0  0  0  0  0  0  0  0  0  0  0
   17.2846   69.7068  -10.6519 O   0  0  0  0  0  0  0  0  0  0  0  0
   15.5501   70.4920   -8.6997 O   0  0  0  0  0  0  0  0  0  0  0  0
   17.7478   70.6861   -9.7218 C   0  0  1  0  0  0  0  0  0  0  0  0
   16.9333   70.6248   -8.4470 C   0  0  2  0  0  0  0  0  0  0  0  0
   19.1275   70.2600   -9.2392 C   0  0  1  0  0  0  0  0  0  0  0  0
   17.5211   69.4065   -7.7555 C   0  0  2  0  0  0  0  0  0  0  0  0
   16.4043   69.9575  -10.9743 H   0  0  0  0  0  0  0  0  0  0  0  0
   15.2236   71.2927   -9.1404 H   0  0  0  0  0  0  0  0  0  0  0  0
   15.2418   68.7507   -6.2222 O   0  0  0  0  0  0  0  0  0  0  0  0
   17.3683   69.8108   -2.2728 O   0  0  0  0  0  0  0  0  0  0  0  0
   17.4517   69.5018   -6.3248 N   0  0  0  0  0  0  0  0  0  0  0  0
   16.3027   69.2803   -4.2567 N   0  0  0  0  0  0  0  0  0  0  0  0
   16.2589   69.1481   -5.6508 C   0  0  0  0  0  0  0  0  0  0  0  0
   18.5564   69.9396   -5.6045 C   0  0  0  0  0  0  0  0  0  0  0  0
   18.5831   70.0603   -4.2757 C   0  0  0  0  0  0  0  0  0  0  0  0
   17.3773   69.7118   -3.4960 C   0  0  0  0  0  0  0  0  0  0  0  0
   15.4833   69.0418   -3.7657 H   0  0  0  0  0  0  0  0  0  0  0  0
   20.5938   73.3229   -6.8717 O   0  0  0  0  0  0  0  0  0  0  0  0
   21.1006   73.7954   -5.4110 P   0  0  2  0  0  0  0  0  0  0  0  0
   22.6468   73.3170   -5.3834 O   0  0  0  0  0  0  0  0  0  0  0  0
   20.2715   73.2740   -4.2732 O   0  0  0  0  0  0  0  0  0  0  0  0
   21.1737   75.4043   -5.5039 O   0  0  0  0  0  0  0  0  0  0  0  0
   23.1343   76.1215   -6.6222 O   0  0  0  0  0  0  0  0  0  0  0  0
   21.5119   79.7131   -5.3827 O   0  0  0  0  0  0  0  0  0  0  0  0
   21.5249   77.3999   -3.5986 O   0  0  0  0  0  0  0  0  0  0  0  0
   21.3080   78.9034   -8.1673 O   0  0  0  0  0  0  0  0  0  0  0  0
   21.4880   78.3569   -5.8277 C   0  0  2  0  0  0  0  0  0  0  0  0
   22.2381   77.4768   -4.8275 C   0  0  2  0  0  0  0  0  0  0  0  0
   22.1630   78.2973   -7.1998 C   0  0  1  0  0  0  0  0  0  0  0  0
   22.4323   76.0640   -5.3799 C   0  0  1  0  0  0  0  0  0  0  0  0
   22.4361   76.8573   -7.6243 C   0  0  1  0  0  0  0  0  0  0  0  0
   21.0882   79.7755   -4.5122 H   0  0  0  0  0  0  0  0  0  0  0  0
   21.3979   78.2929   -3.2425 H   0  0  0  0  0  0  0  0  0  0  0  0
   21.1262   79.8205   -7.9088 H   0  0  0  0  0  0  0  0  0  0  0  0
   23.7837   75.5451   -9.0256 O   0  0  0  0  0  0  0  0  0  0  0  0
   23.7280   77.7871   -9.4375 O   0  0  0  0  0  0  0  0  0  0  0  0
   23.3746   76.8156   -8.7861 C   0  0  0  0  0  0  0  0  0  0  0  0
  1  4  1  0
  1 24  1  0
  1  2  1  1
  1  3  2  0
 25 28  1  0
 25 24  1  0
 25 26  1  1
 25 27  2  0
  6 11  1  0
  6 12  1  0
 29 36  1  0
 29 37  1  0
  9  7  1  6
  7 13  1  0
 10  8  1  6
  8 14  1  0
  4  5  1  0
 36 28  1  6
 33 30  1  1
 30 38  1  0
 34 31  1  1
 31 39  1  0
 35 32  1  6
 32 40  1  0
 41 43  1  0
 15 19  2  0
 42 43  2  0
 16 22  2  0
 12 17  1  1
 17 19  1  0
 17 20  1  0
 18 19  1  0
 18 22  1  0
 18 23  1  0
  9 10  1  0
  9 11  1  0
 10 12  1  0
 11  5  1  1
 33 34  1  0
 33 35  1  0
 34 36  1  0
 35 37  1  0
 37 43  1  6
 20 21  2  0
 21 22  1  0
M  CHG  3   2  -1  26  -1  41  -1
M  END
>  <COMPND>  (145) 
    udp_gluA.pdb 

>  <AUTHOR>  (145) 
    GENERATED BY OPEN BABEL 3.1.1

>  <MASTER>  (145) 
        0    0    0    0    0    0    0    0   56    0   56    0

>  <minimizedAffinity>  (145) 
-6.93935

>  <CNNscore>  (145) 
0.7189473510

>  <CNNaffinity>  (145) 
4.3137168884

>  <CNN_VS>  (145) 
3.1013352871

>  <CNNaffinity_variance>  (145) 
0.1473322958

$$$$
146
     RDKit          3D

 43 45  0  0  0  0  0  0  0  0999 V2000
   18.9458   73.8676   -7.9248 P   0  0  2  0  0  0  0  0  0  0  0  0
   18.1645   75.0712   -8.6731 O   0  0  0  0  0  0  0  0  0  0  0  0
   20.2711   74.2453   -7.3309 O   0  0  0  0  0  0  0  0  0  0  0  0
   18.9815   72.6834   -9.0267 O   0  0  0  0  0  0  0  0  0  0  0  0
   19.7439   71.5234   -8.7481 C   0  0  0  0  0  0  0  0  0  0  0  0
   18.8600   69.3712   -8.1443 O   0  0  0  0  0  0  0  0  0  0  0  0
   17.1497   69.5924  -10.5973 O   0  0  0  0  0  0  0  0  0  0  0  0
   15.4165   70.2591   -8.6004 O   0  0  0  0  0  0  0  0  0  0  0  0
   17.5621   70.6132   -9.6882 C   0  0  1  0  0  0  0  0  0  0  0  0
   16.7919   70.5009   -8.3896 C   0  0  2  0  0  0  0  0  0  0  0  0
   18.9841   70.2995   -9.2434 C   0  0  1  0  0  0  0  0  0  0  0  0
   17.4921   69.3382   -7.7071 C   0  0  2  0  0  0  0  0  0  0  0  0
   16.2437   69.7712  -10.8954 H   0  0  0  0  0  0  0  0  0  0  0  0
   15.0163   71.0281   -9.0369 H   0  0  0  0  0  0  0  0  0  0  0  0
   15.1922   68.8852   -6.1318 O   0  0  0  0  0  0  0  0  0  0  0  0
   17.4729   69.7618   -2.2237 O   0  0  0  0  0  0  0  0  0  0  0  0
   17.4568   69.4412   -6.2756 N   0  0  0  0  0  0  0  0  0  0  0  0
   16.3301   69.3232   -4.1869 N   0  0  0  0  0  0  0  0  0  0  0  0
   16.2500   69.1935   -5.5797 C   0  0  0  0  0  0  0  0  0  0  0  0
   18.6081   69.7822   -5.5762 C   0  0  0  0  0  0  0  0  0  0  0  0
   18.6689   69.9019   -4.2485 C   0  0  0  0  0  0  0  0  0  0  0  0
   17.4515   69.6607   -3.4466 C   0  0  0  0  0  0  0  0  0  0  0  0
   15.5019   69.1577   -3.6809 H   0  0  0  0  0  0  0  0  0  0  0  0
   17.8557   73.3366   -6.8559 O   0  0  0  0  0  0  0  0  0  0  0  0
   17.6332   73.7013   -5.2966 P   0  0  2  0  0  0  0  0  0  0  0  0
   16.5626   72.5905   -4.8062 O   0  0  0  0  0  0  0  0  0  0  0  0
   17.2087   75.1202   -5.0506 O   0  0  0  0  0  0  0  0  0  0  0  0
   19.0144   73.2812   -4.5769 O   0  0  0  0  0  0  0  0  0  0  0  0
   19.9494   73.1375   -2.4056 O   0  0  0  0  0  0  0  0  0  0  0  0
   22.8808   75.2124   -4.4476 O   0  0  0  0  0  0  0  0  0  0  0  0
   20.0586   75.8434   -4.8619 O   0  0  0  0  0  0  0  0  0  0  0  0
   23.2567   72.4005   -3.8130 O   0  0  0  0  0  0  0  0  0  0  0  0
   21.8176   74.2725   -4.2924 C   0  0  2  0  0  0  0  0  0  0  0  0
   20.5551   74.9997   -3.8292 C   0  0  2  0  0  0  0  0  0  0  0  0
   22.2490   73.2384   -3.2500 C   0  0  1  0  0  0  0  0  0  0  0  0
   19.4645   74.0038   -3.4323 C   0  0  1  0  0  0  0  0  0  0  0  0
   21.0764   72.3650   -2.8133 C   0  0  1  0  0  0  0  0  0  0  0  0
   22.6293   75.8796   -5.1055 H   0  0  0  0  0  0  0  0  0  0  0  0
   20.7456   76.4777   -5.1189 H   0  0  0  0  0  0  0  0  0  0  0  0
   24.0088   72.9442   -4.0952 H   0  0  0  0  0  0  0  0  0  0  0  0
   21.1639   70.2744   -1.7536 O   0  0  0  0  0  0  0  0  0  0  0  0
   21.8699   72.0795   -0.5528 O   0  0  0  0  0  0  0  0  0  0  0  0
   21.4191   71.5948   -1.5798 C   0  0  0  0  0  0  0  0  0  0  0  0
  1  4  1  0
  1 24  1  0
  1  2  1  6
  1  3  2  0
 25 28  1  0
 25 24  1  0
 25 26  1  1
 25 27  2  0
  6 11  1  0
  6 12  1  0
 29 36  1  0
 29 37  1  0
  9  7  1  6
  7 13  1  0
 10  8  1  6
  8 14  1  0
  4  5  1  0
 36 28  1  6
 33 30  1  1
 30 38  1  0
 34 31  1  6
 31 39  1  0
 35 32  1  6
 32 40  1  0
 41 43  1  0
 15 19  2  0
 42 43  2  0
 16 22  2  0
 12 17  1  1
 17 19  1  0
 17 20  1  0
 18 19  1  0
 18 22  1  0
 18 23  1  0
  9 10  1  0
  9 11  1  0
 10 12  1  0
 11  5  1  1
 33 34  1  0
 33 35  1  0
 34 36  1  0
 35 37  1  0
 37 43  1  1
 20 21  2  0
 21 22  1  0
M  CHG  3   2  -1  26  -1  41  -1
M  END
>  <COMPND>  (146) 
    udp_gluA.pdb 

>  <AUTHOR>  (146) 
    GENERATED BY OPEN BABEL 3.1.1

>  <MASTER>  (146) 
        0    0    0    0    0    0    0    0   56    0   56    0

>  <minimizedAffinity>  (146) 
-7.96816

>  <CNNscore>  (146) 
0.6578215957

>  <CNNaffinity>  (146) 
4.4909720421

>  <CNN_VS>  (146) 
2.9542584419

>  <CNNaffinity_variance>  (146) 
0.6802098155

$$$$
147
     RDKit          3D

 43 45  0  0  0  0  0  0  0  0999 V2000
   18.4339   70.4522   -9.2979 P   0  0  2  0  0  0  0  0  0  0  0  0
   19.2409   69.5145   -8.2545 O   0  0  0  0  0  0  0  0  0  0  0  0
   18.7529   70.2109  -10.7442 O   0  0  0  0  0  0  0  0  0  0  0  0
   18.7042   71.9540   -8.7598 O   0  0  0  0  0  0  0  0  0  0  0  0
   19.5441   72.1277   -7.6334 C   0  0  0  0  0  0  0  0  0  0  0  0
   19.3110   73.6158   -5.7602 O   0  0  0  0  0  0  0  0  0  0  0  0
   20.4587   75.7378   -7.5410 O   0  0  0  0  0  0  0  0  0  0  0  0
   22.5993   75.0222   -6.0107 O   0  0  0  0  0  0  0  0  0  0  0  0
   20.7763   74.3475   -7.4713 C   0  0  1  0  0  0  0  0  0  0  0  0
   21.5911   74.0576   -6.2286 C   0  0  2  0  0  0  0  0  0  0  0  0
   19.4883   73.5848   -7.1930 C   0  0  1  0  0  0  0  0  0  0  0  0
   20.5271   74.0686   -5.1443 C   0  0  2  0  0  0  0  0  0  0  0  0
   21.2663   76.2458   -7.7181 H   0  0  0  0  0  0  0  0  0  0  0  0
   23.2522   74.9751   -6.7273 H   0  0  0  0  0  0  0  0  0  0  0  0
   18.8799   73.6650   -2.8859 O   0  0  0  0  0  0  0  0  0  0  0  0
   21.8664   70.6971   -1.0106 O   0  0  0  0  0  0  0  0  0  0  0  0
   20.8499   73.1959   -4.0511 N   0  0  0  0  0  0  0  0  0  0  0  0
   20.3694   72.1880   -1.9536 N   0  0  0  0  0  0  0  0  0  0  0  0
   19.9534   73.0647   -2.9642 C   0  0  0  0  0  0  0  0  0  0  0  0
   22.0411   72.4805   -4.0630 C   0  0  0  0  0  0  0  0  0  0  0  0
   22.4239   71.6485   -3.0924 C   0  0  0  0  0  0  0  0  0  0  0  0
   21.5448   71.4552   -1.9206 C   0  0  0  0  0  0  0  0  0  0  0  0
   19.7627   72.0817   -1.1855 H   0  0  0  0  0  0  0  0  0  0  0  0
   16.8892   70.1951   -8.8971 O   0  0  0  0  0  0  0  0  0  0  0  0
   15.7930   71.1691   -8.2164 P   0  0  2  0  0  0  0  0  0  0  0  0
   14.3839   70.5198   -8.6780 O   0  0  0  0  0  0  0  0  0  0  0  0
   15.9519   72.6189   -8.5725 O   0  0  0  0  0  0  0  0  0  0  0  0
   15.8891   70.8532   -6.6374 O   0  0  0  0  0  0  0  0  0  0  0  0
   17.2804   69.3395   -5.4617 O   0  0  0  0  0  0  0  0  0  0  0  0
   13.8498   69.2892   -3.1603 O   0  0  0  0  0  0  0  0  0  0  0  0
   13.6772   69.2629   -6.0764 O   0  0  0  0  0  0  0  0  0  0  0  0
   16.1964   70.7437   -2.2499 O   0  0  0  0  0  0  0  0  0  0  0  0
   14.8294   69.8613   -4.0269 C   0  0  2  0  0  0  0  0  0  0  0  0
   14.8774   69.0730   -5.3360 C   0  0  2  0  0  0  0  0  0  0  0  0
   16.1837   69.7975   -3.3172 C   0  0  1  0  0  0  0  0  0  0  0  0
   16.0660   69.5090   -6.1939 C   0  0  1  0  0  0  0  0  0  0  0  0
   17.3287   70.1236   -4.2717 C   0  0  1  0  0  0  0  0  0  0  0  0
   12.9806   69.3187   -3.5903 H   0  0  0  0  0  0  0  0  0  0  0  0
   12.9188   68.9885   -5.5380 H   0  0  0  0  0  0  0  0  0  0  0  0
   15.4722   70.5475   -1.6352 H   0  0  0  0  0  0  0  0  0  0  0  0
   19.6375   69.8573   -4.5878 O   0  0  0  0  0  0  0  0  0  0  0  0
   18.8093   69.3807   -2.5175 O   0  0  0  0  0  0  0  0  0  0  0  0
   18.6435   69.7432   -3.6725 C   0  0  0  0  0  0  0  0  0  0  0  0
  1  4  1  0
  1 24  1  0
  1  2  1  1
  1  3  2  0
 25 28  1  0
 25 24  1  0
 25 26  1  6
 25 27  2  0
  6 11  1  0
  6 12  1  0
 29 36  1  0
 29 37  1  0
  9  7  1  1
  7 13  1  0
 10  8  1  1
  8 14  1  0
  4  5  1  0
 36 28  1  1
 33 30  1  1
 30 38  1  0
 34 31  1  6
 31 39  1  0
 35 32  1  1
 32 40  1  0
 41 43  1  0
 15 19  2  0
 42 43  2  0
 16 22  2  0
 12 17  1  1
 17 19  1  0
 17 20  1  0
 18 19  1  0
 18 22  1  0
 18 23  1  0
  9 10  1  0
  9 11  1  0
 10 12  1  0
 11  5  1  1
 33 34  1  0
 33 35  1  0
 34 36  1  0
 35 37  1  0
 37 43  1  1
 20 21  2  0
 21 22  1  0
M  CHG  3   2  -1  26  -1  41  -1
M  END
>  <COMPND>  (147) 
    udp_gluA.pdb 

>  <AUTHOR>  (147) 
    GENERATED BY OPEN BABEL 3.1.1

>  <MASTER>  (147) 
        0    0    0    0    0    0    0    0   56    0   56    0

>  <minimizedAffinity>  (147) 
-7.87333

>  <CNNscore>  (147) 
0.6052029133

>  <CNNaffinity>  (147) 
4.3506441116

>  <CNN_VS>  (147) 
2.6330225468

>  <CNNaffinity_variance>  (147) 
0.6776863933

$$$$
148
     RDKit          3D

 43 45  0  0  0  0  0  0  0  0999 V2000
   19.6378   72.6509   -3.5574 P   0  0  2  0  0  0  0  0  0  0  0  0
   19.8535   74.2538   -3.6146 O   0  0  0  0  0  0  0  0  0  0  0  0
   20.1591   71.8987   -4.7467 O   0  0  0  0  0  0  0  0  0  0  0  0
   18.0570   72.4821   -3.2569 O   0  0  0  0  0  0  0  0  0  0  0  0
   17.5095   71.1767   -3.2304 C   0  0  0  0  0  0  0  0  0  0  0  0
   15.9021   71.6464   -4.9548 O   0  0  0  0  0  0  0  0  0  0  0  0
   13.9214   70.1750   -3.2509 O   0  0  0  0  0  0  0  0  0  0  0  0
   14.5860   68.3162   -5.1321 O   0  0  0  0  0  0  0  0  0  0  0  0
   15.3111   69.9152   -3.4500 C   0  0  1  0  0  0  0  0  0  0  0  0
   15.5402   69.3089   -4.8183 C   0  0  2  0  0  0  0  0  0  0  0  0
   16.0267   71.2537   -3.5707 C   0  0  1  0  0  0  0  0  0  0  0  0
   15.4382   70.5249   -5.7231 C   0  0  2  0  0  0  0  0  0  0  0  0
   13.4431   69.3344   -3.1709 H   0  0  0  0  0  0  0  0  0  0  0  0
   14.6921   67.5634   -4.5287 H   0  0  0  0  0  0  0  0  0  0  0  0
   14.4230   70.4979   -8.3585 O   0  0  0  0  0  0  0  0  0  0  0  0
   18.6359   70.0406  -10.1715 O   0  0  0  0  0  0  0  0  0  0  0  0
   16.2474   70.4000   -6.9023 N   0  0  0  0  0  0  0  0  0  0  0  0
   16.5221   70.2691   -9.2589 N   0  0  0  0  0  0  0  0  0  0  0  0
   15.6382   70.3972   -8.1794 C   0  0  0  0  0  0  0  0  0  0  0  0
   17.6273   70.2838   -6.7874 C   0  0  0  0  0  0  0  0  0  0  0  0
   18.4569   70.1626   -7.8256 C   0  0  0  0  0  0  0  0  0  0  0  0
   17.9010   70.1500   -9.1946 C   0  0  0  0  0  0  0  0  0  0  0  0
   16.1211   70.2626  -10.1581 H   0  0  0  0  0  0  0  0  0  0  0  0
   20.3208   72.2428   -2.1504 O   0  0  0  0  0  0  0  0  0  0  0  0
   21.7790   71.6295   -1.8166 P   0  0  2  0  0  0  0  0  0  0  0  0
   22.6403   71.9819   -3.1411 O   0  0  0  0  0  0  0  0  0  0  0  0
   21.7664   70.1721   -1.4568 O   0  0  0  0  0  0  0  0  0  0  0  0
   22.3776   72.5965   -0.6725 O   0  0  0  0  0  0  0  0  0  0  0  0
   21.6443   74.0415    1.0547 O   0  0  0  0  0  0  0  0  0  0  0  0
   24.3327   76.4419   -0.9649 O   0  0  0  0  0  0  0  0  0  0  0  0
   22.4665   74.7441   -2.4377 O   0  0  0  0  0  0  0  0  0  0  0  0
   25.0690   75.2483    1.5815 O   0  0  0  0  0  0  0  0  0  0  0  0
   23.8002   75.2147   -0.4665 C   0  0  2  0  0  0  0  0  0  0  0  0
   22.3996   74.9947   -1.0386 C   0  0  2  0  0  0  0  0  0  0  0  0
   23.7429   75.3094    1.0599 C   0  0  1  0  0  0  0  0  0  0  0  0
   21.7080   73.8151   -0.3538 C   0  0  1  0  0  0  0  0  0  0  0  0
   22.9299   74.1653    1.6588 C   0  0  1  0  0  0  0  0  0  0  0  0
   24.3785   76.4051   -1.9333 H   0  0  0  0  0  0  0  0  0  0  0  0
   22.9045   75.4886   -2.8785 H   0  0  0  0  0  0  0  0  0  0  0  0
   25.5970   75.9712    1.2080 H   0  0  0  0  0  0  0  0  0  0  0  0
   23.5954   73.9970    3.9017 O   0  0  0  0  0  0  0  0  0  0  0  0
   21.5851   74.9890    3.4848 O   0  0  0  0  0  0  0  0  0  0  0  0
   22.6029   74.4397    3.0906 C   0  0  0  0  0  0  0  0  0  0  0  0
  1  4  1  0
  1 24  1  0
  1  2  1  6
  1  3  2  0
 25 28  1  0
 25 24  1  0
 25 26  1  6
 25 27  2  0
  6 11  1  0
  6 12  1  0
 29 36  1  0
 29 37  1  0
  9  7  1  6
  7 13  1  0
 10  8  1  6
  8 14  1  0
  4  5  1  0
 36 28  1  1
 33 30  1  6
 30 38  1  0
 34 31  1  6
 31 39  1  0
 35 32  1  1
 32 40  1  0
 41 43  1  0
 15 19  2  0
 42 43  2  0
 16 22  2  0
 12 17  1  6
 17 19  1  0
 17 20  1  0
 18 19  1  0
 18 22  1  0
 18 23  1  0
  9 10  1  0
  9 11  1  0
 10 12  1  0
 11  5  1  6
 33 34  1  0
 33 35  1  0
 34 36  1  0
 35 37  1  0
 37 43  1  1
 20 21  2  0
 21 22  1  0
M  CHG  3   2  -1  26  -1  41  -1
M  END
>  <COMPND>  (148) 
    udp_gluA.pdb 

>  <AUTHOR>  (148) 
    GENERATED BY OPEN BABEL 3.1.1

>  <MASTER>  (148) 
        0    0    0    0    0    0    0    0   56    0   56    0

>  <minimizedAffinity>  (148) 
-7.30459

>  <CNNscore>  (148) 
0.5707852244

>  <CNNaffinity>  (148) 
4.3112630844

>  <CNN_VS>  (148) 
2.4608051777

>  <CNNaffinity_variance>  (148) 
0.0429944657

$$$$
149
     RDKit          3D

 43 45  0  0  0  0  0  0  0  0999 V2000
   19.5250   72.8122   -3.7262 P   0  0  2  0  0  0  0  0  0  0  0  0
   19.6959   74.3621   -3.2932 O   0  0  0  0  0  0  0  0  0  0  0  0
   20.2722   72.4145   -4.9652 O   0  0  0  0  0  0  0  0  0  0  0  0
   17.9222   72.5962   -3.7724 O   0  0  0  0  0  0  0  0  0  0  0  0
   17.3902   71.3760   -3.2899 C   0  0  0  0  0  0  0  0  0  0  0  0
   15.7580   71.6328   -5.0357 O   0  0  0  0  0  0  0  0  0  0  0  0
   13.9031   70.0654   -3.2768 O   0  0  0  0  0  0  0  0  0  0  0  0
   14.7377   68.1961   -5.0782 O   0  0  0  0  0  0  0  0  0  0  0  0
   15.3112   69.9197   -3.4620 C   0  0  1  0  0  0  0  0  0  0  0  0
   15.6001   69.2802   -4.8036 C   0  0  2  0  0  0  0  0  0  0  0  0
   15.9084   71.3095   -3.6364 C   0  0  1  0  0  0  0  0  0  0  0  0
   15.3979   70.4447   -5.7581 C   0  0  2  0  0  0  0  0  0  0  0  0
   13.4993   69.1903   -3.1632 H   0  0  0  0  0  0  0  0  0  0  0  0
   14.9054   67.4808   -4.4441 H   0  0  0  0  0  0  0  0  0  0  0  0
   14.4217   70.5312   -8.4069 O   0  0  0  0  0  0  0  0  0  0  0  0
   18.6502   70.0432  -10.1750 O   0  0  0  0  0  0  0  0  0  0  0  0
   16.2217   70.3426   -6.9293 N   0  0  0  0  0  0  0  0  0  0  0  0
   16.5286   70.2871   -9.2850 N   0  0  0  0  0  0  0  0  0  0  0  0
   15.6317   70.3974   -8.2143 C   0  0  0  0  0  0  0  0  0  0  0  0
   17.5969   70.1918   -6.7990 C   0  0  0  0  0  0  0  0  0  0  0  0
   18.4390   70.0881   -7.8290 C   0  0  0  0  0  0  0  0  0  0  0  0
   17.9034   70.1352   -9.2054 C   0  0  0  0  0  0  0  0  0  0  0  0
   16.1410   70.3205  -10.1894 H   0  0  0  0  0  0  0  0  0  0  0  0
   19.9611   72.0123   -2.3910 O   0  0  0  0  0  0  0  0  0  0  0  0
   21.3994   71.8558   -1.6695 P   0  0  2  0  0  0  0  0  0  0  0  0
   22.4127   72.5797   -2.7037 O   0  0  0  0  0  0  0  0  0  0  0  0
   21.7680   70.4402   -1.3314 O   0  0  0  0  0  0  0  0  0  0  0  0
   21.3319   72.8511   -0.4017 O   0  0  0  0  0  0  0  0  0  0  0  0
   21.1182   75.2096   -0.4320 O   0  0  0  0  0  0  0  0  0  0  0  0
   23.1624   74.5959    3.1054 O   0  0  0  0  0  0  0  0  0  0  0  0
   23.8726   73.0908    0.7043 O   0  0  0  0  0  0  0  0  0  0  0  0
   20.3290   75.2444    3.1511 O   0  0  0  0  0  0  0  0  0  0  0  0
   22.2463   74.2781    2.0577 C   0  0  2  0  0  0  0  0  0  0  0  0
   22.9948   74.2105    0.7263 C   0  0  2  0  0  0  0  0  0  0  0  0
   21.1796   75.3746    2.0135 C   0  0  1  0  0  0  0  0  0  0  0  0
   22.0182   74.1008   -0.4454 C   0  0  1  0  0  0  0  0  0  0  0  0
   20.3267   75.2715    0.7524 C   0  0  1  0  0  0  0  0  0  0  0  0
   23.8497   73.9127    3.1524 H   0  0  0  0  0  0  0  0  0  0  0  0
   24.4949   73.1538    1.4454 H   0  0  0  0  0  0  0  0  0  0  0  0
   20.8596   75.3080    3.9606 H   0  0  0  0  0  0  0  0  0  0  0  0
   18.4155   76.4991    1.3374 O   0  0  0  0  0  0  0  0  0  0  0  0
   19.8141   77.4252   -0.2070 O   0  0  0  0  0  0  0  0  0  0  0  0
   19.5218   76.5145    0.5533 C   0  0  0  0  0  0  0  0  0  0  0  0
  1  4  1  0
  1 24  1  0
  1  2  1  1
  1  3  2  0
 25 28  1  0
 25 24  1  0
 25 26  1  6
 25 27  2  0
  6 11  1  0
  6 12  1  0
 29 36  1  0
 29 37  1  0
  9  7  1  6
  7 13  1  0
 10  8  1  6
  8 14  1  0
  4  5  1  0
 36 28  1  1
 33 30  1  1
 30 38  1  0
 34 31  1  1
 31 39  1  0
 35 32  1  1
 32 40  1  0
 41 43  1  0
 15 19  2  0
 42 43  2  0
 16 22  2  0
 12 17  1  6
 17 19  1  0
 17 20  1  0
 18 19  1  0
 18 22  1  0
 18 23  1  0
  9 10  1  0
  9 11  1  0
 10 12  1  0
 11  5  1  6
 33 34  1  0
 33 35  1  0
 34 36  1  0
 35 37  1  0
 37 43  1  6
 20 21  2  0
 21 22  1  0
M  CHG  3   2  -1  26  -1  41  -1
M  END
>  <COMPND>  (149) 
    udp_gluA.pdb 

>  <AUTHOR>  (149) 
    GENERATED BY OPEN BABEL 3.1.1

>  <MASTER>  (149) 
        0    0    0    0    0    0    0    0   56    0   56    0

>  <minimizedAffinity>  (149) 
-6.81964

>  <CNNscore>  (149) 
0.5589404106

>  <CNNaffinity>  (149) 
4.2053232193

>  <CNN_VS>  (149) 
2.3505251408

>  <CNNaffinity_variance>  (149) 
0.1284394264

$$$$
150
     RDKit          3D

 43 45  0  0  0  0  0  0  0  0999 V2000
   15.9702   71.0420   -3.3000 P   0  0  2  0  0  0  0  0  0  0  0  0
   15.4605   69.9073   -4.3352 O   0  0  0  0  0  0  0  0  0  0  0  0
   15.7478   70.7231   -1.8506 O   0  0  0  0  0  0  0  0  0  0  0  0
   15.2712   72.3992   -3.8361 O   0  0  0  0  0  0  0  0  0  0  0  0
   14.2718   72.2965   -4.8337 C   0  0  0  0  0  0  0  0  0  0  0  0
   15.7640   73.4085   -6.3551 O   0  0  0  0  0  0  0  0  0  0  0  0
   13.3168   74.6774   -7.5351 O   0  0  0  0  0  0  0  0  0  0  0  0
   13.8677   72.6816   -9.3097 O   0  0  0  0  0  0  0  0  0  0  0  0
   13.4872   73.3620   -7.0066 C   0  0  1  0  0  0  0  0  0  0  0  0
   14.2833   72.5087   -7.9710 C   0  0  2  0  0  0  0  0  0  0  0  0
   14.4267   73.4538   -5.8120 C   0  0  1  0  0  0  0  0  0  0  0  0
   15.7007   72.9999   -7.7307 C   0  0  2  0  0  0  0  0  0  0  0  0
   12.7201   74.6442   -8.2996 H   0  0  0  0  0  0  0  0  0  0  0  0
   12.9599   72.3536   -9.4113 H   0  0  0  0  0  0  0  0  0  0  0  0
   18.1863   73.4289   -9.0011 O   0  0  0  0  0  0  0  0  0  0  0  0
   19.3852   69.0009   -8.5551 O   0  0  0  0  0  0  0  0  0  0  0  0
   16.6814   71.9768   -7.9595 N   0  0  0  0  0  0  0  0  0  0  0  0
   18.7806   71.2229   -8.7787 N   0  0  0  0  0  0  0  0  0  0  0  0
   17.8980   72.2974   -8.6069 C   0  0  0  0  0  0  0  0  0  0  0  0
   16.4347   70.6741   -7.5435 C   0  0  0  0  0  0  0  0  0  0  0  0
   17.2858   69.6605   -7.7142 C   0  0  0  0  0  0  0  0  0  0  0  0
   18.5796   69.9105   -8.3827 C   0  0  0  0  0  0  0  0  0  0  0  0
   19.6335   71.4212   -9.2288 H   0  0  0  0  0  0  0  0  0  0  0  0
   17.5194   71.2426   -3.7153 O   0  0  0  0  0  0  0  0  0  0  0  0
   18.8262   70.3424   -3.4064 P   0  0  2  0  0  0  0  0  0  0  0  0
   19.3681   69.9582   -4.8826 O   0  0  0  0  0  0  0  0  0  0  0  0
   18.5644   69.1615   -2.5171 O   0  0  0  0  0  0  0  0  0  0  0  0
   19.9149   71.3850   -2.8317 O   0  0  0  0  0  0  0  0  0  0  0  0
   21.6298   72.3361   -4.1597 O   0  0  0  0  0  0  0  0  0  0  0  0
   23.1878   72.7453   -0.3553 O   0  0  0  0  0  0  0  0  0  0  0  0
   21.8289   70.2817   -1.1419 O   0  0  0  0  0  0  0  0  0  0  0  0
   22.0831   75.0529   -1.7357 O   0  0  0  0  0  0  0  0  0  0  0  0
   22.1577   72.6772   -1.3412 C   0  0  2  0  0  0  0  0  0  0  0  0
   22.2073   71.3184   -2.0402 C   0  0  2  0  0  0  0  0  0  0  0  0
   22.3934   73.8036   -2.3500 C   0  0  1  0  0  0  0  0  0  0  0  0
   21.2748   71.2921   -3.2521 C   0  0  1  0  0  0  0  0  0  0  0  0
   21.5151   73.6367   -3.5867 C   0  0  1  0  0  0  0  0  0  0  0  0
   23.0587   72.0386    0.2968 H   0  0  0  0  0  0  0  0  0  0  0  0
   22.4163   70.2927   -0.3704 H   0  0  0  0  0  0  0  0  0  0  0  0
   22.6353   75.1714   -0.9470 H   0  0  0  0  0  0  0  0  0  0  0  0
   22.6405   73.8212   -5.6363 O   0  0  0  0  0  0  0  0  0  0  0  0
   21.7866   75.7372   -4.7424 O   0  0  0  0  0  0  0  0  0  0  0  0
   21.9775   74.5314   -4.6903 C   0  0  0  0  0  0  0  0  0  0  0  0
  1  4  1  0
  1 24  1  0
  1  2  1  6
  1  3  2  0
 25 28  1  0
 25 24  1  0
 25 26  1  6
 25 27  2  0
  6 11  1  0
  6 12  1  0
 29 36  1  0
 29 37  1  0
  9  7  1  6
  7 13  1  0
 10  8  1  6
  8 14  1  0
  4  5  1  0
 36 28  1  1
 33 30  1  1
 30 38  1  0
 34 31  1  1
 31 39  1  0
 35 32  1  1
 32 40  1  0
 41 43  1  0
 15 19  2  0
 42 43  2  0
 16 22  2  0
 12 17  1  1
 17 19  1  0
 17 20  1  0
 18 19  1  0
 18 22  1  0
 18 23  1  0
  9 10  1  0
  9 11  1  0
 10 12  1  0
 11  5  1  1
 33 34  1  0
 33 35  1  0
 34 36  1  0
 35 37  1  0
 37 43  1  6
 20 21  2  0
 21 22  1  0
M  CHG  3   2  -1  26  -1  41  -1
M  END
>  <COMPND>  (150) 
    udp_gluA.pdb 

>  <AUTHOR>  (150) 
    GENERATED BY OPEN BABEL 3.1.1

>  <MASTER>  (150) 
        0    0    0    0    0    0    0    0   56    0   56    0

>  <minimizedAffinity>  (150) 
-7.62823

>  <CNNscore>  (150) 
0.4901370406

>  <CNNaffinity>  (150) 
4.4662833214

>  <CNN_VS>  (150) 
2.1890909672

>  <CNNaffinity_variance>  (150) 
0.2296552658

$$$$
151
     RDKit          3D

 43 45  0  0  0  0  0  0  0  0999 V2000
   21.1113   71.0246   -2.1602 P   0  0  2  0  0  0  0  0  0  0  0  0
   21.7909   71.5473   -3.5327 O   0  0  0  0  0  0  0  0  0  0  0  0
   22.0793   70.5815   -1.1026 O   0  0  0  0  0  0  0  0  0  0  0  0
   20.0495   69.9078   -2.6532 O   0  0  0  0  0  0  0  0  0  0  0  0
   19.4223   70.0797   -3.9108 C   0  0  0  0  0  0  0  0  0  0  0  0
   17.5826   71.2426   -4.9311 O   0  0  0  0  0  0  0  0  0  0  0  0
   15.9120   70.2009   -2.6694 O   0  0  0  0  0  0  0  0  0  0  0  0
   15.2693   68.5123   -4.7119 O   0  0  0  0  0  0  0  0  0  0  0  0
   16.9911   69.5711   -3.3604 C   0  0  1  0  0  0  0  0  0  0  0  0
   16.5426   69.1228   -4.7352 C   0  0  2  0  0  0  0  0  0  0  0  0
   18.0225   70.6401   -3.6946 C   0  0  1  0  0  0  0  0  0  0  0  0
   16.5507   70.4289   -5.5111 C   0  0  2  0  0  0  0  0  0  0  0  0
   15.2401   69.5375   -2.4453 H   0  0  0  0  0  0  0  0  0  0  0  0
   15.3166   67.6850   -4.2066 H   0  0  0  0  0  0  0  0  0  0  0  0
   14.6823   70.8284   -7.5910 O   0  0  0  0  0  0  0  0  0  0  0  0
   17.7547   69.6605  -10.8222 O   0  0  0  0  0  0  0  0  0  0  0  0
   16.8358   70.2365   -6.9049 N   0  0  0  0  0  0  0  0  0  0  0  0
   16.2141   70.2454   -9.1983 N   0  0  0  0  0  0  0  0  0  0  0  0
   15.8263   70.4644   -7.8698 C   0  0  0  0  0  0  0  0  0  0  0  0
   18.1028   69.8286   -7.3038 C   0  0  0  0  0  0  0  0  0  0  0  0
   18.4575   69.6241   -8.5739 C   0  0  0  0  0  0  0  0  0  0  0  0
   17.4614   69.8390   -9.6439 C   0  0  0  0  0  0  0  0  0  0  0  0
   15.5276   70.3956   -9.8879 H   0  0  0  0  0  0  0  0  0  0  0  0
   20.1640   72.2618   -1.7302 O   0  0  0  0  0  0  0  0  0  0  0  0
   20.1752   73.8141   -2.1819 P   0  0  2  0  0  0  0  0  0  0  0  0
   21.7485   74.1942   -2.1607 O   0  0  0  0  0  0  0  0  0  0  0  0
   19.3118   74.7070   -1.3385 O   0  0  0  0  0  0  0  0  0  0  0  0
   19.7837   73.7879   -3.7467 O   0  0  0  0  0  0  0  0  0  0  0  0
   20.9538   74.2424   -5.7550 O   0  0  0  0  0  0  0  0  0  0  0  0
   17.2471   75.8836   -6.5517 O   0  0  0  0  0  0  0  0  0  0  0  0
   18.4956   76.2457   -3.9355 O   0  0  0  0  0  0  0  0  0  0  0  0
   18.0059   73.3444   -7.7465 O   0  0  0  0  0  0  0  0  0  0  0  0
   18.1647   74.9600   -5.9662 C   0  0  2  0  0  0  0  0  0  0  0  0
   19.1550   75.7152   -5.0793 C   0  0  2  0  0  0  0  0  0  0  0  0
   18.9034   74.2446   -7.0995 C   0  0  1  0  0  0  0  0  0  0  0  0
   20.2883   74.7969   -4.6196 C   0  0  1  0  0  0  0  0  0  0  0  0
   20.0956   73.4505   -6.5733 C   0  0  1  0  0  0  0  0  0  0  0  0
   16.7659   76.3503   -5.8503 H   0  0  0  0  0  0  0  0  0  0  0  0
   17.7751   76.8292   -4.2198 H   0  0  0  0  0  0  0  0  0  0  0  0
   17.2425   73.8372   -8.0859 H   0  0  0  0  0  0  0  0  0  0  0  0
   22.2489   73.5038   -7.5019 O   0  0  0  0  0  0  0  0  0  0  0  0
   20.6475   72.3600   -8.6536 O   0  0  0  0  0  0  0  0  0  0  0  0
   20.9915   73.0337   -7.6940 C   0  0  0  0  0  0  0  0  0  0  0  0
  1  4  1  0
  1 24  1  0
  1  2  1  6
  1  3  2  0
 25 28  1  0
 25 24  1  0
 25 26  1  6
 25 27  2  0
  6 11  1  0
  6 12  1  0
 29 36  1  0
 29 37  1  0
  9  7  1  1
  7 13  1  0
 10  8  1  1
  8 14  1  0
  4  5  1  0
 36 28  1  1
 33 30  1  6
 30 38  1  0
 34 31  1  1
 31 39  1  0
 35 32  1  1
 32 40  1  0
 41 43  1  0
 15 19  2  0
 42 43  2  0
 16 22  2  0
 12 17  1  6
 17 19  1  0
 17 20  1  0
 18 19  1  0
 18 22  1  0
 18 23  1  0
  9 10  1  0
  9 11  1  0
 10 12  1  0
 11  5  1  6
 33 34  1  0
 33 35  1  0
 34 36  1  0
 35 37  1  0
 37 43  1  6
 20 21  2  0
 21 22  1  0
M  CHG  3   2  -1  26  -1  41  -1
M  END
>  <COMPND>  (151) 
    udp_gluA.pdb 

>  <AUTHOR>  (151) 
    GENERATED BY OPEN BABEL 3.1.1

>  <MASTER>  (151) 
        0    0    0    0    0    0    0    0   56    0   56    0

>  <minimizedAffinity>  (151) 
-7.53360

>  <CNNscore>  (151) 
0.4727118611

>  <CNNaffinity>  (151) 
4.0703139305

>  <CNN_VS>  (151) 
1.9240856171

>  <CNNaffinity_variance>  (151) 
0.7630647421

$$$$
152
     RDKit          3D

 43 45  0  0  0  0  0  0  0  0999 V2000
   16.1590   70.2359   -4.5445 P   0  0  2  0  0  0  0  0  0  0  0  0
   16.6346   69.4369   -3.2201 O   0  0  0  0  0  0  0  0  0  0  0  0
   14.7537   70.7599   -4.4979 O   0  0  0  0  0  0  0  0  0  0  0  0
   16.4877   69.2130   -5.7543 O   0  0  0  0  0  0  0  0  0  0  0  0
   17.5181   69.5511   -6.6645 C   0  0  0  0  0  0  0  0  0  0  0  0
   16.9147   71.4383   -8.0255 O   0  0  0  0  0  0  0  0  0  0  0  0
   16.7677   69.5054  -10.3132 O   0  0  0  0  0  0  0  0  0  0  0  0
   19.1912   70.6960  -10.6939 O   0  0  0  0  0  0  0  0  0  0  0  0
   17.6666   69.5262   -9.2042 C   0  0  1  0  0  0  0  0  0  0  0  0
   18.6862   70.6322   -9.3766 C   0  0  2  0  0  0  0  0  0  0  0  0
   16.8918   69.9951   -7.9802 C   0  0  1  0  0  0  0  0  0  0  0  0
   17.8820   71.8643   -8.9982 C   0  0  2  0  0  0  0  0  0  0  0  0
   17.2401   69.2089  -11.1073 H   0  0  0  0  0  0  0  0  0  0  0  0
   19.6954   69.8894  -10.8864 H   0  0  0  0  0  0  0  0  0  0  0  0
   20.4871   71.4590   -7.9853 O   0  0  0  0  0  0  0  0  0  0  0  0
   20.9209   75.8968   -6.8186 O   0  0  0  0  0  0  0  0  0  0  0  0
   18.6982   72.8963   -8.4241 N   0  0  0  0  0  0  0  0  0  0  0  0
   20.7003   73.6695   -7.4042 N   0  0  0  0  0  0  0  0  0  0  0  0
   19.9930   72.5873   -7.9443 C   0  0  0  0  0  0  0  0  0  0  0  0
   18.2159   74.1969   -8.3422 C   0  0  0  0  0  0  0  0  0  0  0  0
   18.9019   75.2180   -7.8249 C   0  0  0  0  0  0  0  0  0  0  0  0
   20.2627   74.9799   -7.3005 C   0  0  0  0  0  0  0  0  0  0  0  0
   21.6034   73.4785   -7.0618 H   0  0  0  0  0  0  0  0  0  0  0  0
   17.2963   71.3725   -4.7106 O   0  0  0  0  0  0  0  0  0  0  0  0
   17.5276   72.7656   -3.9235 P   0  0  2  0  0  0  0  0  0  0  0  0
   16.5600   72.6264   -2.6332 O   0  0  0  0  0  0  0  0  0  0  0  0
   17.2781   73.9910   -4.7542 O   0  0  0  0  0  0  0  0  0  0  0  0
   19.0218   72.6547   -3.3257 O   0  0  0  0  0  0  0  0  0  0  0  0
   21.0942   72.6460   -4.4721 O   0  0  0  0  0  0  0  0  0  0  0  0
   21.9391   70.2830   -1.1903 O   0  0  0  0  0  0  0  0  0  0  0  0
   19.4018   69.9942   -2.6093 O   0  0  0  0  0  0  0  0  0  0  0  0
   22.9146   73.0189   -1.3084 O   0  0  0  0  0  0  0  0  0  0  0  0
   21.2957   71.3375   -1.9059 C   0  0  2  0  0  0  0  0  0  0  0  0
   20.5092   70.7539   -3.0798 C   0  0  2  0  0  0  0  0  0  0  0  0
   22.3776   72.2937   -2.4130 C   0  0  1  0  0  0  0  0  0  0  0  0
   19.9973   71.8625   -4.0006 C   0  0  1  0  0  0  0  0  0  0  0  0
   21.8127   73.2894   -3.4219 C   0  0  1  0  0  0  0  0  0  0  0  0
   21.2710   69.6626   -0.8585 H   0  0  0  0  0  0  0  0  0  0  0  0
   19.7193   69.2891   -2.0242 H   0  0  0  0  0  0  0  0  0  0  0  0
   23.2774   72.3967   -0.6587 H   0  0  0  0  0  0  0  0  0  0  0  0
   22.9511   73.6039   -5.4484 O   0  0  0  0  0  0  0  0  0  0  0  0
   23.6782   74.8025   -3.6502 O   0  0  0  0  0  0  0  0  0  0  0  0
   22.9138   73.9902   -4.1491 C   0  0  0  0  0  0  0  0  0  0  0  0
  1  4  1  0
  1 24  1  0
  1  2  1  1
  1  3  2  0
 25 28  1  0
 25 24  1  0
 25 26  1  1
 25 27  2  0
  6 11  1  0
  6 12  1  0
 29 36  1  0
 29 37  1  0
  9  7  1  6
  7 13  1  0
 10  8  1  6
  8 14  1  0
  4  5  1  0
 36 28  1  1
 33 30  1  6
 30 38  1  0
 34 31  1  1
 31 39  1  0
 35 32  1  1
 32 40  1  0
 41 43  1  0
 15 19  2  0
 42 43  2  0
 16 22  2  0
 12 17  1  1
 17 19  1  0
 17 20  1  0
 18 19  1  0
 18 22  1  0
 18 23  1  0
  9 10  1  0
  9 11  1  0
 10 12  1  0
 11  5  1  1
 33 34  1  0
 33 35  1  0
 34 36  1  0
 35 37  1  0
 37 43  1  6
 20 21  2  0
 21 22  1  0
M  CHG  3   2  -1  26  -1  41  -1
M  END
>  <COMPND>  (152) 
    udp_gluA.pdb 

>  <AUTHOR>  (152) 
    GENERATED BY OPEN BABEL 3.1.1

>  <MASTER>  (152) 
        0    0    0    0    0    0    0    0   56    0   56    0

>  <minimizedAffinity>  (152) 
-7.20748

>  <CNNscore>  (152) 
0.4260402322

>  <CNNaffinity>  (152) 
4.1533913612

>  <CNN_VS>  (152) 
1.7695118189

>  <CNNaffinity_variance>  (152) 
0.7511987686

$$$$
153
     RDKit          3D

 43 45  0  0  0  0  0  0  0  0999 V2000
   16.1269   73.8433   -5.9166 P   0  0  2  0  0  0  0  0  0  0  0  0
   15.0929   73.2572   -7.0148 O   0  0  0  0  0  0  0  0  0  0  0  0
   15.8346   75.2403   -5.4532 O   0  0  0  0  0  0  0  0  0  0  0  0
   17.5800   73.6164   -6.5912 O   0  0  0  0  0  0  0  0  0  0  0  0
   17.6661   73.5419   -8.0024 C   0  0  0  0  0  0  0  0  0  0  0  0
   18.5063   71.3937   -7.3266 O   0  0  0  0  0  0  0  0  0  0  0  0
   19.2569   70.9902  -10.2015 O   0  0  0  0  0  0  0  0  0  0  0  0
   16.9510   69.5515   -9.9802 O   0  0  0  0  0  0  0  0  0  0  0  0
   18.1216   71.6568   -9.6490 C   0  0  1  0  0  0  0  0  0  0  0  0
   17.1330   70.6463   -9.1068 C   0  0  2  0  0  0  0  0  0  0  0  0
   18.5688   72.3757   -8.3835 C   0  0  1  0  0  0  0  0  0  0  0  0
   17.7812   70.2447   -7.7928 C   0  0  2  0  0  0  0  0  0  0  0  0
   18.9958   70.5235  -11.0113 H   0  0  0  0  0  0  0  0  0  0  0  0
   16.5352   69.8589  -10.8015 H   0  0  0  0  0  0  0  0  0  0  0  0
   18.4345   69.3661   -5.1894 O   0  0  0  0  0  0  0  0  0  0  0  0
   13.9986   68.8190   -4.0637 O   0  0  0  0  0  0  0  0  0  0  0  0
   16.8167   69.8663   -6.7991 N   0  0  0  0  0  0  0  0  0  0  0  0
   16.2246   69.0935   -4.6316 N   0  0  0  0  0  0  0  0  0  0  0  0
   17.2499   69.4390   -5.5217 C   0  0  0  0  0  0  0  0  0  0  0  0
   15.4597   69.9221   -7.0930 C   0  0  0  0  0  0  0  0  0  0  0  0
   14.4941   69.5896   -6.2341 C   0  0  0  0  0  0  0  0  0  0  0  0
   14.8618   69.1319   -4.8781 C   0  0  0  0  0  0  0  0  0  0  0  0
   16.5017   68.7909   -3.7366 H   0  0  0  0  0  0  0  0  0  0  0  0
   16.0894   72.7252   -4.7498 O   0  0  0  0  0  0  0  0  0  0  0  0
   16.6462   72.7554   -3.2324 P   0  0  2  0  0  0  0  0  0  0  0  0
   16.3601   71.2526   -2.7034 O   0  0  0  0  0  0  0  0  0  0  0  0
   16.0484   73.8359   -2.3785 O   0  0  0  0  0  0  0  0  0  0  0  0
   18.2501   72.8344   -3.3865 O   0  0  0  0  0  0  0  0  0  0  0  0
   19.8660   73.0353   -1.6667 O   0  0  0  0  0  0  0  0  0  0  0  0
   21.7672   74.8951   -4.8281 O   0  0  0  0  0  0  0  0  0  0  0  0
   18.9278   75.3634   -4.3250 O   0  0  0  0  0  0  0  0  0  0  0  0
   22.5600   72.2177   -4.0197 O   0  0  0  0  0  0  0  0  0  0  0  0
   20.8970   73.9513   -4.2037 C   0  0  2  0  0  0  0  0  0  0  0  0
   19.8078   74.6939   -3.4293 C   0  0  2  0  0  0  0  0  0  0  0  0
   21.7344   73.0927   -3.2533 C   0  0  1  0  0  0  0  0  0  0  0  0
   18.9972   73.7284   -2.5635 C   0  0  1  0  0  0  0  0  0  0  0  0
   20.8502   72.2513   -2.3374 C   0  0  1  0  0  0  0  0  0  0  0  0
   21.2570   75.4522   -5.4369 H   0  0  0  0  0  0  0  0  0  0  0  0
   19.4355   75.9775   -4.8777 H   0  0  0  0  0  0  0  0  0  0  0  0
   23.1277   72.7407   -4.6071 H   0  0  0  0  0  0  0  0  0  0  0  0
   21.7575   72.5732   -0.1985 O   0  0  0  0  0  0  0  0  0  0  0  0
   22.1336   70.5572   -1.1952 O   0  0  0  0  0  0  0  0  0  0  0  0
   21.6471   71.6780   -1.2111 C   0  0  0  0  0  0  0  0  0  0  0  0
  1  4  1  0
  1 24  1  0
  1  2  1  6
  1  3  2  0
 25 28  1  0
 25 24  1  0
 25 26  1  1
 25 27  2  0
  6 11  1  0
  6 12  1  0
 29 36  1  0
 29 37  1  0
  9  7  1  1
  7 13  1  0
 10  8  1  6
  8 14  1  0
  4  5  1  0
 36 28  1  6
 33 30  1  1
 30 38  1  0
 34 31  1  6
 31 39  1  0
 35 32  1  6
 32 40  1  0
 41 43  1  0
 15 19  2  0
 42 43  2  0
 16 22  2  0
 12 17  1  1
 17 19  1  0
 17 20  1  0
 18 19  1  0
 18 22  1  0
 18 23  1  0
  9 10  1  0
  9 11  1  0
 10 12  1  0
 11  5  1  1
 33 34  1  0
 33 35  1  0
 34 36  1  0
 35 37  1  0
 37 43  1  1
 20 21  2  0
 21 22  1  0
M  CHG  3   2  -1  26  -1  41  -1
M  END
>  <COMPND>  (153) 
    udp_gluA.pdb 

>  <AUTHOR>  (153) 
    GENERATED BY OPEN BABEL 3.1.1

>  <MASTER>  (153) 
        0    0    0    0    0    0    0    0   56    0   56    0

>  <minimizedAffinity>  (153) 
-6.83779

>  <CNNscore>  (153) 
0.4173363149

>  <CNNaffinity>  (153) 
4.0854392052

>  <CNN_VS>  (153) 
1.7050021887

>  <CNNaffinity_variance>  (153) 
0.5965217352

$$$$
154
     RDKit          3D

 43 45  0  0  0  0  0  0  0  0999 V2000
   19.7712   71.3164   -3.1836 P   0  0  2  0  0  0  0  0  0  0  0  0
   20.6031   70.2100   -2.3453 O   0  0  0  0  0  0  0  0  0  0  0  0
   18.9977   72.2942   -2.3486 O   0  0  0  0  0  0  0  0  0  0  0  0
   18.8991   70.4387   -4.2263 O   0  0  0  0  0  0  0  0  0  0  0  0
   17.8484   69.6357   -3.7208 C   0  0  0  0  0  0  0  0  0  0  0  0
   16.6154   71.1470   -5.1254 O   0  0  0  0  0  0  0  0  0  0  0  0
   14.1578   70.1430   -3.7313 O   0  0  0  0  0  0  0  0  0  0  0  0
   14.1074   68.7729   -6.0885 O   0  0  0  0  0  0  0  0  0  0  0  0
   15.3408   69.4338   -4.1001 C   0  0  1  0  0  0  0  0  0  0  0  0
   15.3624   69.1916   -5.5945 C   0  0  2  0  0  0  0  0  0  0  0  0
   16.5272   70.3694   -3.9118 C   0  0  1  0  0  0  0  0  0  0  0  0
   15.7768   70.5521   -6.1285 C   0  0  2  0  0  0  0  0  0  0  0  0
   13.3861   69.5654   -3.8433 H   0  0  0  0  0  0  0  0  0  0  0  0
   13.8889   67.9022   -5.7197 H   0  0  0  0  0  0  0  0  0  0  0  0
   15.4582   72.3067   -8.3186 O   0  0  0  0  0  0  0  0  0  0  0  0
   18.6570   70.0938  -10.7913 O   0  0  0  0  0  0  0  0  0  0  0  0
   16.5135   70.4574   -7.3569 N   0  0  0  0  0  0  0  0  0  0  0  0
   17.0510   71.2023   -9.5484 N   0  0  0  0  0  0  0  0  0  0  0  0
   16.2774   71.3892   -8.3953 C   0  0  0  0  0  0  0  0  0  0  0  0
   17.4582   69.4520   -7.5233 C   0  0  0  0  0  0  0  0  0  0  0  0
   18.1879   69.2867   -8.6283 C   0  0  0  0  0  0  0  0  0  0  0  0
   18.0019   70.2173   -9.7609 C   0  0  0  0  0  0  0  0  0  0  0  0
   16.9028   71.8376  -10.2859 H   0  0  0  0  0  0  0  0  0  0  0  0
   20.9021   71.9830   -4.1267 O   0  0  0  0  0  0  0  0  0  0  0  0
   21.5133   73.4794   -4.1553 P   0  0  2  0  0  0  0  0  0  0  0  0
   23.0131   73.2556   -4.7219 O   0  0  0  0  0  0  0  0  0  0  0  0
   21.4506   74.1955   -2.8373 O   0  0  0  0  0  0  0  0  0  0  0  0
   20.7303   74.2184   -5.3567 O   0  0  0  0  0  0  0  0  0  0  0  0
   18.8890   75.7042   -5.2517 O   0  0  0  0  0  0  0  0  0  0  0  0
   18.2610   73.8428   -8.8861 O   0  0  0  0  0  0  0  0  0  0  0  0
   19.1177   72.2977   -6.5594 O   0  0  0  0  0  0  0  0  0  0  0  0
   19.2978   76.5572   -8.7967 O   0  0  0  0  0  0  0  0  0  0  0  0
   19.0350   74.3746   -7.8108 C   0  0  2  0  0  0  0  0  0  0  0  0
   18.6753   73.6494   -6.5138 C   0  0  2  0  0  0  0  0  0  0  0  0
   18.7170   75.8668   -7.6920 C   0  0  1  0  0  0  0  0  0  0  0  0
   19.3100   74.3407   -5.3063 C   0  0  1  0  0  0  0  0  0  0  0  0
   19.2773   76.4547   -6.4002 C   0  0  1  0  0  0  0  0  0  0  0  0
   18.4466   72.8952   -8.9805 H   0  0  0  0  0  0  0  0  0  0  0  0
   18.7190   71.8531   -7.3235 H   0  0  0  0  0  0  0  0  0  0  0  0
   18.9496   76.1925   -9.6253 H   0  0  0  0  0  0  0  0  0  0  0  0
   17.5910   78.0070   -6.8984 O   0  0  0  0  0  0  0  0  0  0  0  0
   19.1362   78.6155   -5.3359 O   0  0  0  0  0  0  0  0  0  0  0  0
   18.6920   77.8032   -6.1334 C   0  0  0  0  0  0  0  0  0  0  0  0
  1  4  1  0
  1 24  1  0
  1  2  1  1
  1  3  2  0
 25 28  1  0
 25 24  1  0
 25 26  1  6
 25 27  2  0
  6 11  1  0
  6 12  1  0
 29 36  1  0
 29 37  1  0
  9  7  1  6
  7 13  1  0
 10  8  1  6
  8 14  1  0
  4  5  1  0
 36 28  1  6
 33 30  1  6
 30 38  1  0
 34 31  1  6
 31 39  1  0
 35 32  1  6
 32 40  1  0
 41 43  1  0
 15 19  2  0
 42 43  2  0
 16 22  2  0
 12 17  1  6
 17 19  1  0
 17 20  1  0
 18 19  1  0
 18 22  1  0
 18 23  1  0
  9 10  1  0
  9 11  1  0
 10 12  1  0
 11  5  1  6
 33 34  1  0
 33 35  1  0
 34 36  1  0
 35 37  1  0
 37 43  1  1
 20 21  2  0
 21 22  1  0
M  CHG  3   2  -1  26  -1  41  -1
M  END
>  <COMPND>  (154) 
    udp_gluA.pdb 

>  <AUTHOR>  (154) 
    GENERATED BY OPEN BABEL 3.1.1

>  <MASTER>  (154) 
        0    0    0    0    0    0    0    0   56    0   56    0

>  <minimizedAffinity>  (154) 
-6.35962

>  <CNNscore>  (154) 
0.4151646495

>  <CNNaffinity>  (154) 
4.0449447632

>  <CNN_VS>  (154) 
1.6793180704

>  <CNNaffinity_variance>  (154) 
0.6598028541

$$$$
155
     RDKit          3D

 43 45  0  0  0  0  0  0  0  0999 V2000
   21.3548   71.4425   -2.1457 P   0  0  2  0  0  0  0  0  0  0  0  0
   22.5356   71.1340   -3.2084 O   0  0  0  0  0  0  0  0  0  0  0  0
   21.8099   71.6209   -0.7270 O   0  0  0  0  0  0  0  0  0  0  0  0
   20.2861   70.2539   -2.3966 O   0  0  0  0  0  0  0  0  0  0  0  0
   19.5755   70.2308   -3.6209 C   0  0  0  0  0  0  0  0  0  0  0  0
   17.7491   71.4427   -4.6076 O   0  0  0  0  0  0  0  0  0  0  0  0
   16.0559   70.3183   -2.4030 O   0  0  0  0  0  0  0  0  0  0  0  0
   15.4221   68.7168   -4.5170 O   0  0  0  0  0  0  0  0  0  0  0  0
   17.1377   69.7119   -3.1105 C   0  0  1  0  0  0  0  0  0  0  0  0
   16.6982   69.3217   -4.5057 C   0  0  2  0  0  0  0  0  0  0  0  0
   18.1765   70.7887   -3.3931 C   0  0  1  0  0  0  0  0  0  0  0  0
   16.7183   70.6580   -5.2280 C   0  0  2  0  0  0  0  0  0  0  0  0
   15.3794   69.6496   -2.2111 H   0  0  0  0  0  0  0  0  0  0  0  0
   15.4618   67.8695   -4.0453 H   0  0  0  0  0  0  0  0  0  0  0  0
   14.7852   70.1537   -7.2243 O   0  0  0  0  0  0  0  0  0  0  0  0
   17.9655   70.1505  -10.5604 O   0  0  0  0  0  0  0  0  0  0  0  0
   17.0136   70.5208   -6.6262 N   0  0  0  0  0  0  0  0  0  0  0  0
   16.3711   70.1516   -8.8839 N   0  0  0  0  0  0  0  0  0  0  0  0
   15.9692   70.2681   -7.5467 C   0  0  0  0  0  0  0  0  0  0  0  0
   18.3241   70.6382   -7.0730 C   0  0  0  0  0  0  0  0  0  0  0  0
   18.6918   70.5248   -8.3508 C   0  0  0  0  0  0  0  0  0  0  0  0
   17.6616   70.2598   -9.3764 C   0  0  0  0  0  0  0  0  0  0  0  0
   15.6618   69.9735   -9.5430 H   0  0  0  0  0  0  0  0  0  0  0  0
   20.6198   72.7328   -2.7844 O   0  0  0  0  0  0  0  0  0  0  0  0
   20.9999   74.3034   -2.7353 P   0  0  2  0  0  0  0  0  0  0  0  0
   22.6180   74.2911   -2.6912 O   0  0  0  0  0  0  0  0  0  0  0  0
   20.3563   75.0578   -1.6081 O   0  0  0  0  0  0  0  0  0  0  0  0
   20.6369   74.8585   -4.2058 O   0  0  0  0  0  0  0  0  0  0  0  0
   19.0333   74.4330   -5.8959 O   0  0  0  0  0  0  0  0  0  0  0  0
   22.5314   74.6262   -8.0855 O   0  0  0  0  0  0  0  0  0  0  0  0
   22.4642   73.2264   -5.5222 O   0  0  0  0  0  0  0  0  0  0  0  0
   20.6577   76.8485   -8.1295 O   0  0  0  0  0  0  0  0  0  0  0  0
   21.6435   74.9527   -7.0164 C   0  0  2  0  0  0  0  0  0  0  0  0
   21.3142   73.6893   -6.2207 C   0  0  2  0  0  0  0  0  0  0  0  0
   20.3703   75.5462   -7.6235 C   0  0  1  0  0  0  0  0  0  0  0  0
   20.1930   73.9530   -5.2147 C   0  0  1  0  0  0  0  0  0  0  0  0
   19.2587   75.6611   -6.5844 C   0  0  1  0  0  0  0  0  0  0  0  0
   23.3479   74.2471   -7.7237 H   0  0  0  0  0  0  0  0  0  0  0  0
   23.1797   73.0573   -6.1545 H   0  0  0  0  0  0  0  0  0  0  0  0
   21.3638   76.7894   -8.7919 H   0  0  0  0  0  0  0  0  0  0  0  0
   17.8009   77.2435   -7.5183 O   0  0  0  0  0  0  0  0  0  0  0  0
   17.1059   75.0719   -7.5006 O   0  0  0  0  0  0  0  0  0  0  0  0
   17.9430   75.9235   -7.2418 C   0  0  0  0  0  0  0  0  0  0  0  0
  1  4  1  0
  1 24  1  0
  1  2  1  6
  1  3  2  0
 25 28  1  0
 25 24  1  0
 25 26  1  1
 25 27  2  0
  6 11  1  0
  6 12  1  0
 29 36  1  0
 29 37  1  0
  9  7  1  1
  7 13  1  0
 10  8  1  1
  8 14  1  0
  4  5  1  0
 36 28  1  1
 33 30  1  6
 30 38  1  0
 34 31  1  1
 31 39  1  0
 35 32  1  1
 32 40  1  0
 41 43  1  0
 15 19  2  0
 42 43  2  0
 16 22  2  0
 12 17  1  6
 17 19  1  0
 17 20  1  0
 18 19  1  0
 18 22  1  0
 18 23  1  0
  9 10  1  0
  9 11  1  0
 10 12  1  0
 11  5  1  6
 33 34  1  0
 33 35  1  0
 34 36  1  0
 35 37  1  0
 37 43  1  6
 20 21  2  0
 21 22  1  0
M  CHG  3   2  -1  26  -1  41  -1
M  END
>  <COMPND>  (155) 
    udp_gluA.pdb 

>  <AUTHOR>  (155) 
    GENERATED BY OPEN BABEL 3.1.1

>  <MASTER>  (155) 
        0    0    0    0    0    0    0    0   56    0   56    0

>  <minimizedAffinity>  (155) 
-7.30273

>  <CNNscore>  (155) 
0.4107981622

>  <CNNaffinity>  (155) 
4.1364989281

>  <CNN_VS>  (155) 
1.6992661953

>  <CNNaffinity_variance>  (155) 
0.5539733768

$$$$
156
     RDKit          3D

 43 45  0  0  0  0  0  0  0  0999 V2000
   15.5209   70.3541   -3.6719 P   0  0  2  0  0  0  0  0  0  0  0  0
   15.8337   68.9502   -4.4136 O   0  0  0  0  0  0  0  0  0  0  0  0
   14.7429   70.2360   -2.3942 O   0  0  0  0  0  0  0  0  0  0  0  0
   14.8415   71.2608   -4.8270 O   0  0  0  0  0  0  0  0  0  0  0  0
   15.6630   72.1545   -5.5557 C   0  0  0  0  0  0  0  0  0  0  0  0
   16.2611   72.8445   -7.7792 O   0  0  0  0  0  0  0  0  0  0  0  0
   14.5078   70.6112   -8.7435 O   0  0  0  0  0  0  0  0  0  0  0  0
   17.0090   69.5521   -8.9853 O   0  0  0  0  0  0  0  0  0  0  0  0
   15.3535   70.6644   -7.5944 C   0  0  1  0  0  0  0  0  0  0  0  0
   16.8058   70.5500   -8.0068 C   0  0  2  0  0  0  0  0  0  0  0  0
   15.2926   72.0777   -7.0313 C   0  0  1  0  0  0  0  0  0  0  0  0
   17.0969   71.9472   -8.5272 C   0  0  2  0  0  0  0  0  0  0  0  0
   14.5303   69.7175   -9.1209 H   0  0  0  0  0  0  0  0  0  0  0  0
   16.8108   68.6814   -8.6051 H   0  0  0  0  0  0  0  0  0  0  0  0
   19.2188   71.1066  -10.1908 O   0  0  0  0  0  0  0  0  0  0  0  0
   22.3237   73.4604   -7.7286 O   0  0  0  0  0  0  0  0  0  0  0  0
   18.4695   72.3254   -8.3438 N   0  0  0  0  0  0  0  0  0  0  0  0
   20.7633   72.2789   -8.9623 N   0  0  0  0  0  0  0  0  0  0  0  0
   19.4586   71.8479   -9.2359 C   0  0  0  0  0  0  0  0  0  0  0  0
   18.8240   73.1609   -7.2915 C   0  0  0  0  0  0  0  0  0  0  0  0
   20.0720   73.5633   -7.0436 C   0  0  0  0  0  0  0  0  0  0  0  0
   21.1649   73.1088   -7.9281 C   0  0  0  0  0  0  0  0  0  0  0  0
   21.4694   71.9578   -9.5686 H   0  0  0  0  0  0  0  0  0  0  0  0
   16.9879   71.0130   -3.5086 O   0  0  0  0  0  0  0  0  0  0  0  0
   18.4425   70.3323   -3.3228 P   0  0  2  0  0  0  0  0  0  0  0  0
   19.0092   70.2515   -4.8369 O   0  0  0  0  0  0  0  0  0  0  0  0
   18.4189   69.0165   -2.6003 O   0  0  0  0  0  0  0  0  0  0  0  0
   19.3391   71.4700   -2.6126 O   0  0  0  0  0  0  0  0  0  0  0  0
   20.7177   73.0793   -3.6703 O   0  0  0  0  0  0  0  0  0  0  0  0
   22.6095   72.6160   -0.0269 O   0  0  0  0  0  0  0  0  0  0  0  0
   21.5841   70.2916   -1.4692 O   0  0  0  0  0  0  0  0  0  0  0  0
   20.9994   74.9804   -0.5448 O   0  0  0  0  0  0  0  0  0  0  0  0
   21.4989   72.6540   -0.9231 C   0  0  2  0  0  0  0  0  0  0  0  0
   21.6869   71.6013   -2.0158 C   0  0  2  0  0  0  0  0  0  0  0  0
   21.4350   74.0539   -1.5379 C   0  0  1  0  0  0  0  0  0  0  0  0
   20.6399   71.7644   -3.1185 C   0  0  1  0  0  0  0  0  0  0  0  0
   20.4609   74.1030   -2.7115 C   0  0  1  0  0  0  0  0  0  0  0  0
   22.6702   71.7355    0.3760 H   0  0  0  0  0  0  0  0  0  0  0  0
   22.2455   70.1813   -0.7687 H   0  0  0  0  0  0  0  0  0  0  0  0
   21.6109   74.9589    0.2079 H   0  0  0  0  0  0  0  0  0  0  0  0
   21.7895   75.9883   -3.1382 O   0  0  0  0  0  0  0  0  0  0  0  0
   19.8784   75.7641   -4.3615 O   0  0  0  0  0  0  0  0  0  0  0  0
   20.6457   75.3572   -3.5021 C   0  0  0  0  0  0  0  0  0  0  0  0
  1  4  1  0
  1 24  1  0
  1  2  1  6
  1  3  2  0
 25 28  1  0
 25 24  1  0
 25 26  1  6
 25 27  2  0
  6 11  1  0
  6 12  1  0
 29 36  1  0
 29 37  1  0
  9  7  1  6
  7 13  1  0
 10  8  1  6
  8 14  1  0
  4  5  1  0
 36 28  1  1
 33 30  1  1
 30 38  1  0
 34 31  1  1
 31 39  1  0
 35 32  1  1
 32 40  1  0
 41 43  1  0
 15 19  2  0
 42 43  2  0
 16 22  2  0
 12 17  1  1
 17 19  1  0
 17 20  1  0
 18 19  1  0
 18 22  1  0
 18 23  1  0
  9 10  1  0
  9 11  1  0
 10 12  1  0
 11  5  1  1
 33 34  1  0
 33 35  1  0
 34 36  1  0
 35 37  1  0
 37 43  1  6
 20 21  2  0
 21 22  1  0
M  CHG  3   2  -1  26  -1  41  -1
M  END
>  <COMPND>  (156) 
    udp_gluA.pdb 

>  <AUTHOR>  (156) 
    GENERATED BY OPEN BABEL 3.1.1

>  <MASTER>  (156) 
        0    0    0    0    0    0    0    0   56    0   56    0

>  <minimizedAffinity>  (156) 
-8.03761

>  <CNNscore>  (156) 
0.4103609324

>  <CNNaffinity>  (156) 
4.1424727440

>  <CNN_VS>  (156) 
1.6999089718

>  <CNNaffinity_variance>  (156) 
0.4647993445

$$$$
157
     RDKit          3D

 43 45  0  0  0  0  0  0  0  0999 V2000
   17.5487   69.6600   -3.8688 P   0  0  2  0  0  0  0  0  0  0  0  0
   17.7712   69.4211   -2.2837 O   0  0  0  0  0  0  0  0  0  0  0  0
   16.8497   68.5425   -4.5859 O   0  0  0  0  0  0  0  0  0  0  0  0
   19.0251   70.0316   -4.4167 O   0  0  0  0  0  0  0  0  0  0  0  0
   19.5977   71.2679   -4.0317 C   0  0  0  0  0  0  0  0  0  0  0  0
   21.8647   72.0285   -3.7870 O   0  0  0  0  0  0  0  0  0  0  0  0
   21.9669   70.3413   -1.3102 O   0  0  0  0  0  0  0  0  0  0  0  0
   21.5917   72.8493   -0.3076 O   0  0  0  0  0  0  0  0  0  0  0  0
   20.8814   71.1016   -1.8415 C   0  0  1  0  0  0  0  0  0  0  0  0
   21.1131   72.5795   -1.6086 C   0  0  2  0  0  0  0  0  0  0  0  0
   20.9394   71.0054   -3.3600 C   0  0  1  0  0  0  0  0  0  0  0  0
   22.1302   72.9130   -2.6867 C   0  0  2  0  0  0  0  0  0  0  0  0
   21.9507   70.3877   -0.3410 H   0  0  0  0  0  0  0  0  0  0  0  0
   20.9081   72.6207    0.3423 H   0  0  0  0  0  0  0  0  0  0  0  0
   24.0878   74.2391   -4.2313 O   0  0  0  0  0  0  0  0  0  0  0  0
   21.6063   78.1205   -4.3765 O   0  0  0  0  0  0  0  0  0  0  0  0
   22.0213   74.2702   -3.1418 N   0  0  0  0  0  0  0  0  0  0  0  0
   22.8505   76.1713   -4.3013 N   0  0  0  0  0  0  0  0  0  0  0  0
   23.0614   74.8420   -3.9121 C   0  0  0  0  0  0  0  0  0  0  0  0
   20.8940   75.0191   -2.8266 C   0  0  0  0  0  0  0  0  0  0  0  0
   20.7072   76.2851   -3.2048 C   0  0  0  0  0  0  0  0  0  0  0  0
   21.7467   76.9571   -4.0117 C   0  0  0  0  0  0  0  0  0  0  0  0
   23.5618   76.5916   -4.8367 H   0  0  0  0  0  0  0  0  0  0  0  0
   16.7755   71.0787   -3.9169 O   0  0  0  0  0  0  0  0  0  0  0  0
   15.8054   71.7213   -5.0393 P   0  0  2  0  0  0  0  0  0  0  0  0
   16.2772   73.2687   -5.0939 O   0  0  0  0  0  0  0  0  0  0  0  0
   14.3409   71.5304   -4.7698 O   0  0  0  0  0  0  0  0  0  0  0  0
   16.3175   71.0900   -6.4328 O   0  0  0  0  0  0  0  0  0  0  0  0
   17.8095   72.4813   -7.6359 O   0  0  0  0  0  0  0  0  0  0  0  0
   17.0354   69.4998  -10.3889 O   0  0  0  0  0  0  0  0  0  0  0  0
   14.8773   70.6113   -8.7636 O   0  0  0  0  0  0  0  0  0  0  0  0
   19.5689   69.5483   -8.9641 O   0  0  0  0  0  0  0  0  0  0  0  0
   17.2168   70.0560   -9.0867 C   0  0  2  0  0  0  0  0  0  0  0  0
   16.1865   71.1613   -8.8543 C   0  0  2  0  0  0  0  0  0  0  0  0
   18.6351   70.6255   -9.0091 C   0  0  1  0  0  0  0  0  0  0  0  0
   16.4924   71.9332   -7.5700 C   0  0  1  0  0  0  0  0  0  0  0  0
   18.8225   71.4859   -7.7629 C   0  0  1  0  0  0  0  0  0  0  0  0
   16.1407   69.1316  -10.4617 H   0  0  0  0  0  0  0  0  0  0  0  0
   14.6766   70.1199   -9.5752 H   0  0  0  0  0  0  0  0  0  0  0  0
   19.4600   68.9928   -9.7517 H   0  0  0  0  0  0  0  0  0  0  0  0
   20.6013   72.2146   -9.1070 O   0  0  0  0  0  0  0  0  0  0  0  0
   20.5657   72.9402   -6.9457 O   0  0  0  0  0  0  0  0  0  0  0  0
   20.0760   72.2933   -7.8593 C   0  0  0  0  0  0  0  0  0  0  0  0
  1  4  1  0
  1 24  1  0
  1  2  1  1
  1  3  2  0
 25 28  1  0
 25 24  1  0
 25 26  1  6
 25 27  2  0
  6 11  1  0
  6 12  1  0
 29 36  1  0
 29 37  1  0
  9  7  1  1
  7 13  1  0
 10  8  1  1
  8 14  1  0
  4  5  1  0
 36 28  1  1
 33 30  1  6
 30 38  1  0
 34 31  1  1
 31 39  1  0
 35 32  1  1
 32 40  1  0
 41 43  1  0
 15 19  2  0
 42 43  2  0
 16 22  2  0
 12 17  1  6
 17 19  1  0
 17 20  1  0
 18 19  1  0
 18 22  1  0
 18 23  1  0
  9 10  1  0
  9 11  1  0
 10 12  1  0
 11  5  1  6
 33 34  1  0
 33 35  1  0
 34 36  1  0
 35 37  1  0
 37 43  1  6
 20 21  2  0
 21 22  1  0
M  CHG  3   2  -1  26  -1  41  -1
M  END
>  <COMPND>  (157) 
    udp_gluA.pdb 

>  <AUTHOR>  (157) 
    GENERATED BY OPEN BABEL 3.1.1

>  <MASTER>  (157) 
        0    0    0    0    0    0    0    0   56    0   56    0

>  <minimizedAffinity>  (157) 
-7.75671

>  <CNNscore>  (157) 
0.3854536712

>  <CNNaffinity>  (157) 
4.1865229607

>  <CNN_VS>  (157) 
1.6137106419

>  <CNNaffinity_variance>  (157) 
0.3371301293

$$$$
158
     RDKit          3D

 43 45  0  0  0  0  0  0  0  0999 V2000
   16.7695   74.4513   -5.2711 P   0  0  2  0  0  0  0  0  0  0  0  0
   15.4864   75.4365   -5.2290 O   0  0  0  0  0  0  0  0  0  0  0  0
   18.0856   75.1345   -5.5012 O   0  0  0  0  0  0  0  0  0  0  0  0
   16.3610   73.3278   -6.3615 O   0  0  0  0  0  0  0  0  0  0  0  0
   16.7577   73.5162   -7.7075 C   0  0  0  0  0  0  0  0  0  0  0  0
   17.7643   71.4191   -7.1019 O   0  0  0  0  0  0  0  0  0  0  0  0
   18.9403   71.3995   -9.8602 O   0  0  0  0  0  0  0  0  0  0  0  0
   16.8264   69.6939  -10.1016 O   0  0  0  0  0  0  0  0  0  0  0  0
   17.6658   71.8732   -9.4246 C   0  0  1  0  0  0  0  0  0  0  0  0
   16.7491   70.7072   -9.1208 C   0  0  2  0  0  0  0  0  0  0  0  0
   17.8439   72.5048   -8.0507 C   0  0  1  0  0  0  0  0  0  0  0  0
   17.2599   70.2492   -7.7654 C   0  0  2  0  0  0  0  0  0  0  0  0
   18.8519   70.9916  -10.7362 H   0  0  0  0  0  0  0  0  0  0  0  0
   16.4896   70.0346  -10.9457 H   0  0  0  0  0  0  0  0  0  0  0  0
   14.5083   70.8246   -8.0369 O   0  0  0  0  0  0  0  0  0  0  0  0
   13.3824   67.9465   -4.6174 O   0  0  0  0  0  0  0  0  0  0  0  0
   16.2261   69.6644   -6.9592 N   0  0  0  0  0  0  0  0  0  0  0  0
   13.9502   69.3914   -6.3329 N   0  0  0  0  0  0  0  0  0  0  0  0
   14.8743   70.0215   -7.1767 C   0  0  0  0  0  0  0  0  0  0  0  0
   16.5546   68.7476   -5.9679 C   0  0  0  0  0  0  0  0  0  0  0  0
   15.6626   68.1552   -5.1715 C   0  0  0  0  0  0  0  0  0  0  0  0
   14.2288   68.4738   -5.3328 C   0  0  0  0  0  0  0  0  0  0  0  0
   13.0030   69.6256   -6.4640 H   0  0  0  0  0  0  0  0  0  0  0  0
   16.6608   73.6537   -3.8694 O   0  0  0  0  0  0  0  0  0  0  0  0
   17.2958   73.9694   -2.4165 P   0  0  2  0  0  0  0  0  0  0  0  0
   16.1916   73.3746   -1.3932 O   0  0  0  0  0  0  0  0  0  0  0  0
   17.6314   75.4154   -2.1922 O   0  0  0  0  0  0  0  0  0  0  0  0
   18.5507   72.9635   -2.2910 O   0  0  0  0  0  0  0  0  0  0  0  0
   20.8302   73.4785   -2.6758 O   0  0  0  0  0  0  0  0  0  0  0  0
   20.7215   69.4418   -3.5484 O   0  0  0  0  0  0  0  0  0  0  0  0
   18.5779   71.2100   -4.4499 O   0  0  0  0  0  0  0  0  0  0  0  0
   21.8723   70.3626   -1.0426 O   0  0  0  0  0  0  0  0  0  0  0  0
   20.3349   70.6408   -2.8768 C   0  0  2  0  0  0  0  0  0  0  0  0
   19.8117   71.6527   -3.8965 C   0  0  2  0  0  0  0  0  0  0  0  0
   21.5655   71.1977   -2.1575 C   0  0  1  0  0  0  0  0  0  0  0  0
   19.6046   73.0233   -3.2504 C   0  0  1  0  0  0  0  0  0  0  0  0
   21.3205   72.6163   -1.6514 C   0  0  1  0  0  0  0  0  0  0  0  0
   19.9553   69.0698   -4.0129 H   0  0  0  0  0  0  0  0  0  0  0  0
   18.7019   70.3407   -4.8613 H   0  0  0  0  0  0  0  0  0  0  0  0
   22.0303   69.4566   -1.3511 H   0  0  0  0  0  0  0  0  0  0  0  0
   23.1054   72.6895   -0.1315 O   0  0  0  0  0  0  0  0  0  0  0  0
   23.1394   74.1892   -1.8487 O   0  0  0  0  0  0  0  0  0  0  0  0
   22.6051   73.2664   -1.2521 C   0  0  0  0  0  0  0  0  0  0  0  0
  1  4  1  0
  1 24  1  0
  1  2  1  1
  1  3  2  0
 25 28  1  0
 25 24  1  0
 25 26  1  1
 25 27  2  0
  6 11  1  0
  6 12  1  0
 29 36  1  0
 29 37  1  0
  9  7  1  1
  7 13  1  0
 10  8  1  6
  8 14  1  0
  4  5  1  0
 36 28  1  1
 33 30  1  6
 30 38  1  0
 34 31  1  1
 31 39  1  0
 35 32  1  1
 32 40  1  0
 41 43  1  0
 15 19  2  0
 42 43  2  0
 16 22  2  0
 12 17  1  1
 17 19  1  0
 17 20  1  0
 18 19  1  0
 18 22  1  0
 18 23  1  0
  9 10  1  0
  9 11  1  0
 10 12  1  0
 11  5  1  1
 33 34  1  0
 33 35  1  0
 34 36  1  0
 35 37  1  0
 37 43  1  6
 20 21  2  0
 21 22  1  0
M  CHG  3   2  -1  26  -1  41  -1
M  END
>  <COMPND>  (158) 
    udp_gluA.pdb 

>  <AUTHOR>  (158) 
    GENERATED BY OPEN BABEL 3.1.1

>  <MASTER>  (158) 
        0    0    0    0    0    0    0    0   56    0   56    0

>  <minimizedAffinity>  (158) 
-7.64523

>  <CNNscore>  (158) 
0.3763162792

>  <CNNaffinity>  (158) 
3.9917769432

>  <CNN_VS>  (158) 
1.5021706820

>  <CNNaffinity_variance>  (158) 
0.6631938815

$$$$
159
     RDKit          3D

 43 45  0  0  0  0  0  0  0  0999 V2000
   20.8733   73.6434   -6.2521 P   0  0  2  0  0  0  0  0  0  0  0  0
   20.4108   75.0090   -5.5172 O   0  0  0  0  0  0  0  0  0  0  0  0
   22.3100   73.6117   -6.6841 O   0  0  0  0  0  0  0  0  0  0  0  0
   19.7810   73.4466   -7.4294 O   0  0  0  0  0  0  0  0  0  0  0  0
   20.0702   72.5366   -8.4748 C   0  0  0  0  0  0  0  0  0  0  0  0
   18.2924   71.3472   -7.3783 O   0  0  0  0  0  0  0  0  0  0  0  0
   19.2191   68.9347   -8.8989 O   0  0  0  0  0  0  0  0  0  0  0  0
   17.0522   69.7507  -10.3393 O   0  0  0  0  0  0  0  0  0  0  0  0
   19.1840   70.3021   -9.3080 C   0  0  1  0  0  0  0  0  0  0  0  0
   17.7602   70.7250   -9.6016 C   0  0  2  0  0  0  0  0  0  0  0  0
   19.5293   71.1627   -8.1003 C   0  0  1  0  0  0  0  0  0  0  0  0
   17.1963   70.9252   -8.2053 C   0  0  2  0  0  0  0  0  0  0  0  0
   19.0017   68.3653   -9.6540 H   0  0  0  0  0  0  0  0  0  0  0  0
   17.4494   69.6605  -11.2203 H   0  0  0  0  0  0  0  0  0  0  0  0
   14.4355   70.3918   -8.4694 O   0  0  0  0  0  0  0  0  0  0  0  0
   13.3475   74.8505   -8.0447 O   0  0  0  0  0  0  0  0  0  0  0  0
   16.1697   71.9279   -8.1674 N   0  0  0  0  0  0  0  0  0  0  0  0
   13.8963   72.6131   -8.2586 N   0  0  0  0  0  0  0  0  0  0  0  0
   14.8125   71.5543   -8.3101 C   0  0  0  0  0  0  0  0  0  0  0  0
   16.5107   73.2632   -7.9891 C   0  0  0  0  0  0  0  0  0  0  0  0
   15.6262   74.2613   -7.9420 C   0  0  0  0  0  0  0  0  0  0  0  0
   14.1873   73.9564   -8.0838 C   0  0  0  0  0  0  0  0  0  0  0  0
   12.9454   72.3779   -8.3577 H   0  0  0  0  0  0  0  0  0  0  0  0
   20.4660   72.5006   -5.1838 O   0  0  0  0  0  0  0  0  0  0  0  0
   19.8013   72.6100   -3.7142 P   0  0  2  0  0  0  0  0  0  0  0  0
   19.8204   71.0803   -3.1849 O   0  0  0  0  0  0  0  0  0  0  0  0
   18.4448   73.2530   -3.6981 O   0  0  0  0  0  0  0  0  0  0  0  0
   20.9106   73.3646   -2.8184 O   0  0  0  0  0  0  0  0  0  0  0  0
   23.1738   73.7913   -3.3709 O   0  0  0  0  0  0  0  0  0  0  0  0
   23.3462   73.5463    0.7496 O   0  0  0  0  0  0  0  0  0  0  0  0
   21.7255   71.6571   -0.7797 O   0  0  0  0  0  0  0  0  0  0  0  0
   23.4797   76.1356   -0.5651 O   0  0  0  0  0  0  0  0  0  0  0  0
   22.7515   73.8395   -0.5147 C   0  0  2  0  0  0  0  0  0  0  0  0
   22.6656   72.5610   -1.3487 C   0  0  2  0  0  0  0  0  0  0  0  0
   23.6276   74.8772   -1.2201 C   0  0  1  0  0  0  0  0  0  0  0  0
   22.2492   72.8728   -2.7868 C   0  0  1  0  0  0  0  0  0  0  0  0
   23.2296   75.0396   -2.6842 C   0  0  1  0  0  0  0  0  0  0  0  0
   22.8066   72.8887    1.2161 H   0  0  0  0  0  0  0  0  0  0  0  0
   21.9834   71.4550    0.1330 H   0  0  0  0  0  0  0  0  0  0  0  0
   23.7298   76.0460    0.3678 H   0  0  0  0  0  0  0  0  0  0  0  0
   24.8675   74.9924   -4.3625 O   0  0  0  0  0  0  0  0  0  0  0  0
   24.5679   76.9638   -3.2566 O   0  0  0  0  0  0  0  0  0  0  0  0
   24.2777   75.7910   -3.4387 C   0  0  0  0  0  0  0  0  0  0  0  0
  1  4  1  0
  1 24  1  0
  1  2  1  1
  1  3  2  0
 25 28  1  0
 25 24  1  0
 25 26  1  1
 25 27  2  0
  6 11  1  0
  6 12  1  0
 29 36  1  0
 29 37  1  0
  9  7  1  1
  7 13  1  0
 10  8  1  1
  8 14  1  0
  4  5  1  0
 36 28  1  1
 33 30  1  1
 30 38  1  0
 34 31  1  1
 31 39  1  0
 35 32  1  1
 32 40  1  0
 41 43  1  0
 15 19  2  0
 42 43  2  0
 16 22  2  0
 12 17  1  6
 17 19  1  0
 17 20  1  0
 18 19  1  0
 18 22  1  0
 18 23  1  0
  9 10  1  0
  9 11  1  0
 10 12  1  0
 11  5  1  6
 33 34  1  0
 33 35  1  0
 34 36  1  0
 35 37  1  0
 37 43  1  6
 20 21  2  0
 21 22  1  0
M  CHG  3   2  -1  26  -1  41  -1
M  END
>  <COMPND>  (159) 
    udp_gluA.pdb 

>  <AUTHOR>  (159) 
    GENERATED BY OPEN BABEL 3.1.1

>  <MASTER>  (159) 
        0    0    0    0    0    0    0    0   56    0   56    0

>  <minimizedAffinity>  (159) 
-7.49870

>  <CNNscore>  (159) 
0.3673945665

>  <CNNaffinity>  (159) 
3.8880183697

>  <CNN_VS>  (159) 
1.4284368753

>  <CNNaffinity_variance>  (159) 
0.4126062989

$$$$
160
     RDKit          3D

 43 45  0  0  0  0  0  0  0  0999 V2000
   21.1806   73.5832   -5.9007 P   0  0  2  0  0  0  0  0  0  0  0  0
   22.4225   73.5876   -6.9383 O   0  0  0  0  0  0  0  0  0  0  0  0
   20.3959   74.8612   -5.8464 O   0  0  0  0  0  0  0  0  0  0  0  0
   21.8429   73.1055   -4.5039 O   0  0  0  0  0  0  0  0  0  0  0  0
   21.5178   73.8163   -3.3235 C   0  0  0  0  0  0  0  0  0  0  0  0
   19.8498   72.8790   -1.8684 O   0  0  0  0  0  0  0  0  0  0  0  0
   21.7803   70.6307   -1.4099 O   0  0  0  0  0  0  0  0  0  0  0  0
   20.0331   69.5585   -3.2082 O   0  0  0  0  0  0  0  0  0  0  0  0
   21.5286   71.3770   -2.6008 C   0  0  1  0  0  0  0  0  0  0  0  0
   20.2073   70.9600   -3.2113 C   0  0  2  0  0  0  0  0  0  0  0  0
   21.2537   72.8203   -2.2015 C   0  0  1  0  0  0  0  0  0  0  0  0
   19.2078   71.6755   -2.3186 C   0  0  2  0  0  0  0  0  0  0  0  0
   21.9586   69.7049   -1.6397 H   0  0  0  0  0  0  0  0  0  0  0  0
   20.6925   69.1494   -3.7911 H   0  0  0  0  0  0  0  0  0  0  0  0
   16.7758   70.2562   -2.0999 O   0  0  0  0  0  0  0  0  0  0  0  0
   14.6429   73.0966   -5.0370 O   0  0  0  0  0  0  0  0  0  0  0  0
   18.0013   72.0224   -3.0150 N   0  0  0  0  0  0  0  0  0  0  0  0
   15.7161   71.6717   -3.5637 N   0  0  0  0  0  0  0  0  0  0  0  0
   16.8338   71.2434   -2.8355 C   0  0  0  0  0  0  0  0  0  0  0  0
   17.9818   73.1233   -3.8627 C   0  0  0  0  0  0  0  0  0  0  0  0
   16.9088   73.5193   -4.5501 C   0  0  0  0  0  0  0  0  0  0  0  0
   15.6483   72.7593   -4.4194 C   0  0  0  0  0  0  0  0  0  0  0  0
   14.8920   71.1438   -3.4566 H   0  0  0  0  0  0  0  0  0  0  0  0
   20.3284   72.2888   -6.3603 O   0  0  0  0  0  0  0  0  0  0  0  0
   19.3312   72.0646   -7.6129 P   0  0  2  0  0  0  0  0  0  0  0  0
   20.1317   71.0041   -8.5376 O   0  0  0  0  0  0  0  0  0  0  0  0
   18.9376   73.3287   -8.3207 O   0  0  0  0  0  0  0  0  0  0  0  0
   18.0949   71.2241   -7.0065 O   0  0  0  0  0  0  0  0  0  0  0  0
   17.1881   69.0558   -6.7144 O   0  0  0  0  0  0  0  0  0  0  0  0
   14.2673   70.8892   -8.9893 O   0  0  0  0  0  0  0  0  0  0  0  0
   17.0946   71.2979   -9.6007 O   0  0  0  0  0  0  0  0  0  0  0  0
   13.8482   70.4638   -6.1443 O   0  0  0  0  0  0  0  0  0  0  0  0
   15.3149   70.8221   -8.0219 C   0  0  2  0  0  0  0  0  0  0  0  0
   16.5971   70.3246   -8.6897 C   0  0  2  0  0  0  0  0  0  0  0  0
   14.8791   69.8546   -6.9192 C   0  0  1  0  0  0  0  0  0  0  0  0
   17.6745   70.0212   -7.6476 C   0  0  1  0  0  0  0  0  0  0  0  0
   16.0413   69.5035   -5.9949 C   0  0  1  0  0  0  0  0  0  0  0  0
   14.5218   71.4985   -9.7002 H   0  0  0  0  0  0  0  0  0  0  0  0
   16.4159   71.4955  -10.2646 H   0  0  0  0  0  0  0  0  0  0  0  0
   13.1025   70.6924   -6.7209 H   0  0  0  0  0  0  0  0  0  0  0  0
   14.8088   68.6745   -4.1796 O   0  0  0  0  0  0  0  0  0  0  0  0
   16.1589   67.2023   -5.2792 O   0  0  0  0  0  0  0  0  0  0  0  0
   15.7017   68.3267   -5.1392 C   0  0  0  0  0  0  0  0  0  0  0  0
  1  4  1  0
  1 24  1  0
  1  2  1  6
  1  3  2  0
 25 28  1  0
 25 24  1  0
 25 26  1  6
 25 27  2  0
  6 11  1  0
  6 12  1  0
 29 36  1  0
 29 37  1  0
  9  7  1  1
  7 13  1  0
 10  8  1  1
  8 14  1  0
  4  5  1  0
 36 28  1  1
 33 30  1  6
 30 38  1  0
 34 31  1  6
 31 39  1  0
 35 32  1  1
 32 40  1  0
 41 43  1  0
 15 19  2  0
 42 43  2  0
 16 22  2  0
 12 17  1  6
 17 19  1  0
 17 20  1  0
 18 19  1  0
 18 22  1  0
 18 23  1  0
  9 10  1  0
  9 11  1  0
 10 12  1  0
 11  5  1  6
 33 34  1  0
 33 35  1  0
 34 36  1  0
 35 37  1  0
 37 43  1  1
 20 21  2  0
 21 22  1  0
M  CHG  3   2  -1  26  -1  41  -1
M  END
>  <COMPND>  (160) 
    udp_gluA.pdb 

>  <AUTHOR>  (160) 
    GENERATED BY OPEN BABEL 3.1.1

>  <MASTER>  (160) 
        0    0    0    0    0    0    0    0   56    0   56    0

>  <minimizedAffinity>  (160) 
-7.73887

>  <CNNscore>  (160) 
0.3411290348

>  <CNNaffinity>  (160) 
3.9016456604

>  <CNN_VS>  (160) 
1.3309645653

>  <CNNaffinity_variance>  (160) 
0.7340095043

$$$$
161
     RDKit          3D

 43 45  0  0  0  0  0  0  0  0999 V2000
   18.8450   73.7709   -7.7160 P   0  0  2  0  0  0  0  0  0  0  0  0
   17.3732   73.4974   -7.1013 O   0  0  0  0  0  0  0  0  0  0  0  0
   19.1096   75.1922   -8.1180 O   0  0  0  0  0  0  0  0  0  0  0  0
   18.9849   72.6700   -8.8935 O   0  0  0  0  0  0  0  0  0  0  0  0
   19.7601   71.5112   -8.6470 C   0  0  0  0  0  0  0  0  0  0  0  0
   18.8330   69.3777   -8.0420 O   0  0  0  0  0  0  0  0  0  0  0  0
   17.1975   69.5869  -10.5466 O   0  0  0  0  0  0  0  0  0  0  0  0
   15.4152   70.3001   -8.6098 O   0  0  0  0  0  0  0  0  0  0  0  0
   17.5957   70.6146   -9.6389 C   0  0  1  0  0  0  0  0  0  0  0  0
   16.7867   70.5284   -8.3620 C   0  0  2  0  0  0  0  0  0  0  0  0
   19.0002   70.2900   -9.1487 C   0  0  1  0  0  0  0  0  0  0  0  0
   17.4526   69.3665   -7.6446 C   0  0  2  0  0  0  0  0  0  0  0  0
   16.3028   69.7725  -10.8733 H   0  0  0  0  0  0  0  0  0  0  0  0
   15.0373   71.0679   -9.0676 H   0  0  0  0  0  0  0  0  0  0  0  0
   15.1877   68.6806   -6.1031 O   0  0  0  0  0  0  0  0  0  0  0  0
   17.2747   69.8764   -2.1714 O   0  0  0  0  0  0  0  0  0  0  0  0
   17.3770   69.4886   -6.2162 N   0  0  0  0  0  0  0  0  0  0  0  0
   16.2289   69.2778   -4.1465 N   0  0  0  0  0  0  0  0  0  0  0  0
   16.1923   69.1166   -5.5378 C   0  0  0  0  0  0  0  0  0  0  0  0
   18.4677   69.9703   -5.5025 C   0  0  0  0  0  0  0  0  0  0  0  0
   18.4877   70.1182   -4.1765 C   0  0  0  0  0  0  0  0  0  0  0  0
   17.2896   69.7532   -3.3924 C   0  0  0  0  0  0  0  0  0  0  0  0
   15.4149   69.0273   -3.6525 H   0  0  0  0  0  0  0  0  0  0  0  0
   19.8296   73.2015   -6.5674 O   0  0  0  0  0  0  0  0  0  0  0  0
   21.2172   73.7824   -5.9752 P   0  0  2  0  0  0  0  0  0  0  0  0
   20.8618   75.3273   -5.6479 O   0  0  0  0  0  0  0  0  0  0  0  0
   22.3989   73.5986   -6.8829 O   0  0  0  0  0  0  0  0  0  0  0  0
   21.3691   73.0843   -4.5288 O   0  0  0  0  0  0  0  0  0  0  0  0
   23.3887   74.0108   -3.7093 O   0  0  0  0  0  0  0  0  0  0  0  0
   22.0021   71.9593   -0.4022 O   0  0  0  0  0  0  0  0  0  0  0  0
   21.8326   70.7661   -3.0634 O   0  0  0  0  0  0  0  0  0  0  0  0
   21.7785   74.8552   -0.5223 O   0  0  0  0  0  0  0  0  0  0  0  0
   21.8904   72.7092   -1.6118 C   0  0  2  0  0  0  0  0  0  0  0  0
   22.5651   71.9455   -2.7516 C   0  0  2  0  0  0  0  0  0  0  0  0
   22.5772   74.0596   -1.3962 C   0  0  1  0  0  0  0  0  0  0  0  0
   22.6685   72.8139   -4.0062 C   0  0  1  0  0  0  0  0  0  0  0  0
   22.7558   74.8103   -2.7126 C   0  0  1  0  0  0  0  0  0  0  0  0
   21.5725   71.0968   -0.5155 H   0  0  0  0  0  0  0  0  0  0  0  0
   21.7629   70.2105   -2.2717 H   0  0  0  0  0  0  0  0  0  0  0  0
   21.6571   74.3887    0.3193 H   0  0  0  0  0  0  0  0  0  0  0  0
   24.5259   75.7437   -1.4891 O   0  0  0  0  0  0  0  0  0  0  0  0
   23.7422   76.9422   -3.2635 O   0  0  0  0  0  0  0  0  0  0  0  0
   23.7041   75.9530   -2.5472 C   0  0  0  0  0  0  0  0  0  0  0  0
  1  4  1  0
  1 24  1  0
  1  2  1  1
  1  3  2  0
 25 28  1  0
 25 24  1  0
 25 26  1  1
 25 27  2  0
  6 11  1  0
  6 12  1  0
 29 36  1  0
 29 37  1  0
  9  7  1  6
  7 13  1  0
 10  8  1  6
  8 14  1  0
  4  5  1  0
 36 28  1  1
 33 30  1  1
 30 38  1  0
 34 31  1  6
 31 39  1  0
 35 32  1  1
 32 40  1  0
 41 43  1  0
 15 19  2  0
 42 43  2  0
 16 22  2  0
 12 17  1  1
 17 19  1  0
 17 20  1  0
 18 19  1  0
 18 22  1  0
 18 23  1  0
  9 10  1  0
  9 11  1  0
 10 12  1  0
 11  5  1  1
 33 34  1  0
 33 35  1  0
 34 36  1  0
 35 37  1  0
 37 43  1  1
 20 21  2  0
 21 22  1  0
M  CHG  3   2  -1  26  -1  41  -1
M  END
>  <COMPND>  (161) 
    udp_gluA.pdb 

>  <AUTHOR>  (161) 
    GENERATED BY OPEN BABEL 3.1.1

>  <MASTER>  (161) 
        0    0    0    0    0    0    0    0   56    0   56    0

>  <minimizedAffinity>  (161) 
-8.07031

>  <CNNscore>  (161) 
0.8201243877

>  <CNNaffinity>  (161) 
4.6866297722

>  <CNN_VS>  (161) 
3.8436193466

>  <CNNaffinity_variance>  (161) 
0.3079501987

$$$$
162
     RDKit          3D

 43 45  0  0  0  0  0  0  0  0999 V2000
   19.7318   72.5444   -3.5914 P   0  0  2  0  0  0  0  0  0  0  0  0
   20.1155   73.9992   -4.1874 O   0  0  0  0  0  0  0  0  0  0  0  0
   19.9932   71.3918   -4.5161 O   0  0  0  0  0  0  0  0  0  0  0  0
   18.2000   72.7175   -3.1000 O   0  0  0  0  0  0  0  0  0  0  0  0
   17.2188   73.0719   -4.0573 C   0  0  0  0  0  0  0  0  0  0  0  0
   15.5484   71.8223   -5.2514 O   0  0  0  0  0  0  0  0  0  0  0  0
   15.2095   70.2272   -2.7350 O   0  0  0  0  0  0  0  0  0  0  0  0
   16.7546   68.5904   -4.2745 O   0  0  0  0  0  0  0  0  0  0  0  0
   16.3965   70.7877   -3.2966 C   0  0  1  0  0  0  0  0  0  0  0  0
   16.8379   69.9821   -4.5001 C   0  0  2  0  0  0  0  0  0  0  0  0
   16.0323   72.1258   -3.9251 C   0  0  1  0  0  0  0  0  0  0  0  0
   15.8718   70.4597   -5.5709 C   0  0  2  0  0  0  0  0  0  0  0  0
   15.4172   69.3713   -2.3274 H   0  0  0  0  0  0  0  0  0  0  0  0
   17.3887   68.3362   -3.5851 H   0  0  0  0  0  0  0  0  0  0  0  0
   14.3725   70.2778   -7.9574 O   0  0  0  0  0  0  0  0  0  0  0  0
   18.1750   70.2831  -10.5620 O   0  0  0  0  0  0  0  0  0  0  0  0
   16.4445   70.4119   -6.8864 N   0  0  0  0  0  0  0  0  0  0  0  0
   16.2678   70.2796   -9.2523 N   0  0  0  0  0  0  0  0  0  0  0  0
   15.6026   70.3204   -8.0199 C   0  0  0  0  0  0  0  0  0  0  0  0
   17.8244   70.4572   -7.0442 C   0  0  0  0  0  0  0  0  0  0  0  0
   18.4439   70.4175   -8.2255 C   0  0  0  0  0  0  0  0  0  0  0  0
   17.6371   70.3212   -9.4596 C   0  0  0  0  0  0  0  0  0  0  0  0
   15.7027   70.2139  -10.0558 H   0  0  0  0  0  0  0  0  0  0  0  0
   20.5556   72.4928   -2.2016 O   0  0  0  0  0  0  0  0  0  0  0  0
   21.9703   71.8035   -1.8312 P   0  0  2  0  0  0  0  0  0  0  0  0
   22.7228   71.7119   -3.2615 O   0  0  0  0  0  0  0  0  0  0  0  0
   21.8464   70.4912   -1.1125 O   0  0  0  0  0  0  0  0  0  0  0  0
   22.7782   72.9385   -1.0180 O   0  0  0  0  0  0  0  0  0  0  0  0
   22.4985   73.9586    1.1011 O   0  0  0  0  0  0  0  0  0  0  0  0
   23.7014   77.1578   -1.2198 O   0  0  0  0  0  0  0  0  0  0  0  0
   21.7753   75.2197   -2.2535 O   0  0  0  0  0  0  0  0  0  0  0  0
   25.5667   75.9150    0.6314 O   0  0  0  0  0  0  0  0  0  0  0  0
   23.6441   75.7899   -0.8152 C   0  0  2  0  0  0  0  0  0  0  0  0
   22.2010   75.2919   -0.8976 C   0  0  2  0  0  0  0  0  0  0  0  0
   24.1566   75.7005    0.6239 C   0  0  1  0  0  0  0  0  0  0  0  0
   22.0618   73.9099   -0.2577 C   0  0  1  0  0  0  0  0  0  0  0  0
   23.8682   74.3319    1.2340 C   0  0  1  0  0  0  0  0  0  0  0  0
   23.3803   77.2392   -2.1317 H   0  0  0  0  0  0  0  0  0  0  0  0
   21.8612   76.0932   -2.6658 H   0  0  0  0  0  0  0  0  0  0  0  0
   25.7639   76.7828    0.2455 H   0  0  0  0  0  0  0  0  0  0  0  0
   22.9263   74.0026    3.3568 O   0  0  0  0  0  0  0  0  0  0  0  0
   25.1092   74.6567    3.2775 O   0  0  0  0  0  0  0  0  0  0  0  0
   24.0665   74.3587    2.7146 C   0  0  0  0  0  0  0  0  0  0  0  0
  1  4  1  0
  1 24  1  0
  1  2  1  6
  1  3  2  0
 25 28  1  0
 25 24  1  0
 25 26  1  6
 25 27  2  0
  6 11  1  0
  6 12  1  0
 29 36  1  0
 29 37  1  0
  9  7  1  6
  7 13  1  0
 10  8  1  1
  8 14  1  0
  4  5  1  0
 36 28  1  6
 33 30  1  1
 30 38  1  0
 34 31  1  6
 31 39  1  0
 35 32  1  6
 32 40  1  0
 41 43  1  0
 15 19  2  0
 42 43  2  0
 16 22  2  0
 12 17  1  6
 17 19  1  0
 17 20  1  0
 18 19  1  0
 18 22  1  0
 18 23  1  0
  9 10  1  0
  9 11  1  0
 10 12  1  0
 11  5  1  6
 33 34  1  0
 33 35  1  0
 34 36  1  0
 35 37  1  0
 37 43  1  1
 20 21  2  0
 21 22  1  0
M  CHG  3   2  -1  26  -1  41  -1
M  END
>  <COMPND>  (162) 
    udp_gluA.pdb 

>  <AUTHOR>  (162) 
    GENERATED BY OPEN BABEL 3.1.1

>  <MASTER>  (162) 
        0    0    0    0    0    0    0    0   56    0   56    0

>  <minimizedAffinity>  (162) 
-7.12922

>  <CNNscore>  (162) 
0.5928914547

>  <CNNaffinity>  (162) 
4.2914209366

>  <CNN_VS>  (162) 
2.5443468094

>  <CNNaffinity_variance>  (162) 
0.0668979660

$$$$
163
     RDKit          3D

 43 45  0  0  0  0  0  0  0  0999 V2000
   18.5542   74.1050   -8.1452 P   0  0  2  0  0  0  0  0  0  0  0  0
   17.4664   74.9893   -8.9536 O   0  0  0  0  0  0  0  0  0  0  0  0
   19.7340   74.8725   -7.6248 O   0  0  0  0  0  0  0  0  0  0  0  0
   18.8972   72.8903   -9.1576 O   0  0  0  0  0  0  0  0  0  0  0  0
   19.5732   71.7556   -8.6477 C   0  0  0  0  0  0  0  0  0  0  0  0
   18.8447   69.5315   -8.0999 O   0  0  0  0  0  0  0  0  0  0  0  0
   17.1019   69.7030  -10.5339 O   0  0  0  0  0  0  0  0  0  0  0  0
   15.3445   70.1922   -8.5070 O   0  0  0  0  0  0  0  0  0  0  0  0
   17.4511   70.7239   -9.5988 C   0  0  1  0  0  0  0  0  0  0  0  0
   16.7018   70.5223   -8.2987 C   0  0  2  0  0  0  0  0  0  0  0  0
   18.8951   70.4967   -9.1728 C   0  0  1  0  0  0  0  0  0  0  0  0
   17.4862   69.3919   -7.6546 C   0  0  2  0  0  0  0  0  0  0  0  0
   16.1832   69.8272  -10.8206 H   0  0  0  0  0  0  0  0  0  0  0  0
   14.8885   70.9437   -8.9186 H   0  0  0  0  0  0  0  0  0  0  0  0
   15.2178   68.7979   -6.0803 O   0  0  0  0  0  0  0  0  0  0  0  0
   17.4867   69.6558   -2.1611 O   0  0  0  0  0  0  0  0  0  0  0  0
   17.4564   69.4520   -6.2206 N   0  0  0  0  0  0  0  0  0  0  0  0
   16.3497   69.2267   -4.1299 N   0  0  0  0  0  0  0  0  0  0  0  0
   16.2657   69.1340   -5.5254 C   0  0  0  0  0  0  0  0  0  0  0  0
   18.5972   69.8205   -5.5179 C   0  0  0  0  0  0  0  0  0  0  0  0
   18.6620   69.9042   -4.1877 C   0  0  0  0  0  0  0  0  0  0  0  0
   17.4612   69.5893   -3.3863 C   0  0  0  0  0  0  0  0  0  0  0  0
   15.5327   69.0121   -3.6243 H   0  0  0  0  0  0  0  0  0  0  0  0
   17.6622   73.3865   -7.0046 O   0  0  0  0  0  0  0  0  0  0  0  0
   17.5199   73.6868   -5.4224 P   0  0  2  0  0  0  0  0  0  0  0  0
   16.5629   72.4889   -4.9032 O   0  0  0  0  0  0  0  0  0  0  0  0
   17.0169   75.0641   -5.0999 O   0  0  0  0  0  0  0  0  0  0  0  0
   18.9716   73.3434   -4.8085 O   0  0  0  0  0  0  0  0  0  0  0  0
   20.0554   73.0691   -2.7206 O   0  0  0  0  0  0  0  0  0  0  0  0
   22.5628   75.7444   -4.6242 O   0  0  0  0  0  0  0  0  0  0  0  0
   19.6626   76.0375   -4.8183 O   0  0  0  0  0  0  0  0  0  0  0  0
   23.3316   72.9526   -4.3683 O   0  0  0  0  0  0  0  0  0  0  0  0
   21.6393   74.6591   -4.5375 C   0  0  2  0  0  0  0  0  0  0  0  0
   20.3275   75.1511   -3.9256 C   0  0  2  0  0  0  0  0  0  0  0  0
   22.2644   73.5756   -3.6560 C   0  0  1  0  0  0  0  0  0  0  0  0
   19.3996   73.9785   -3.6050 C   0  0  1  0  0  0  0  0  0  0  0  0
   21.2424   72.5078   -3.2766 C   0  0  1  0  0  0  0  0  0  0  0  0
   22.1869   76.4454   -5.1798 H   0  0  0  0  0  0  0  0  0  0  0  0
   20.2458   76.7839   -5.0262 H   0  0  0  0  0  0  0  0  0  0  0  0
   23.9891   73.6214   -4.6159 H   0  0  0  0  0  0  0  0  0  0  0  0
   20.7679   70.8746   -1.6615 O   0  0  0  0  0  0  0  0  0  0  0  0
   22.9135   71.6388   -1.7687 O   0  0  0  0  0  0  0  0  0  0  0  0
   21.7588   71.6494   -2.1682 C   0  0  0  0  0  0  0  0  0  0  0  0
  1  4  1  0
  1 24  1  0
  1  2  1  6
  1  3  2  0
 25 28  1  0
 25 24  1  0
 25 26  1  1
 25 27  2  0
  6 11  1  0
  6 12  1  0
 29 36  1  0
 29 37  1  0
  9  7  1  6
  7 13  1  0
 10  8  1  6
  8 14  1  0
  4  5  1  0
 36 28  1  6
 33 30  1  1
 30 38  1  0
 34 31  1  6
 31 39  1  0
 35 32  1  6
 32 40  1  0
 41 43  1  0
 15 19  2  0
 42 43  2  0
 16 22  2  0
 12 17  1  1
 17 19  1  0
 17 20  1  0
 18 19  1  0
 18 22  1  0
 18 23  1  0
  9 10  1  0
  9 11  1  0
 10 12  1  0
 11  5  1  1
 33 34  1  0
 33 35  1  0
 34 36  1  0
 35 37  1  0
 37 43  1  1
 20 21  2  0
 21 22  1  0
M  CHG  3   2  -1  26  -1  41  -1
M  END
>  <COMPND>  (163) 
    udp_gluA.pdb 

>  <AUTHOR>  (163) 
    GENERATED BY OPEN BABEL 3.1.1

>  <MASTER>  (163) 
        0    0    0    0    0    0    0    0   56    0   56    0

>  <minimizedAffinity>  (163) 
-7.50351

>  <CNNscore>  (163) 
0.5906814337

>  <CNNaffinity>  (163) 
4.2786645889

>  <CNN_VS>  (163) 
2.5273277760

>  <CNNaffinity_variance>  (163) 
0.7544268370

$$$$
164
     RDKit          3D

 43 45  0  0  0  0  0  0  0  0999 V2000
   15.4673   73.7022   -4.7852 P   0  0  2  0  0  0  0  0  0  0  0  0
   13.9379   73.3102   -5.1406 O   0  0  0  0  0  0  0  0  0  0  0  0
   15.6241   74.6988   -3.6744 O   0  0  0  0  0  0  0  0  0  0  0  0
   16.0991   74.1338   -6.2109 O   0  0  0  0  0  0  0  0  0  0  0  0
   17.4006   73.6826   -6.5380 C   0  0  0  0  0  0  0  0  0  0  0  0
   17.4741   71.6822   -7.8686 O   0  0  0  0  0  0  0  0  0  0  0  0
   16.3871   73.3543  -10.1078 O   0  0  0  0  0  0  0  0  0  0  0  0
   14.1726   72.0325   -9.2219 O   0  0  0  0  0  0  0  0  0  0  0  0
   16.1025   73.4203   -8.7102 C   0  0  1  0  0  0  0  0  0  0  0  0
   15.2178   72.2620   -8.3003 C   0  0  2  0  0  0  0  0  0  0  0  0
   17.3897   73.1212   -7.9540 C   0  0  1  0  0  0  0  0  0  0  0  0
   16.2096   71.1127   -8.2426 C   0  0  2  0  0  0  0  0  0  0  0  0
   15.5794   73.5419  -10.6118 H   0  0  0  0  0  0  0  0  0  0  0  0
   13.5684   72.7920   -9.2213 H   0  0  0  0  0  0  0  0  0  0  0  0
   18.0109   69.2764   -7.0764 O   0  0  0  0  0  0  0  0  0  0  0  0
   14.6830   67.3425   -4.5409 O   0  0  0  0  0  0  0  0  0  0  0  0
   15.8406   70.1186   -7.2749 N   0  0  0  0  0  0  0  0  0  0  0  0
   16.3515   68.3143   -5.8154 N   0  0  0  0  0  0  0  0  0  0  0  0
   16.8225   69.2446   -6.7513 C   0  0  0  0  0  0  0  0  0  0  0  0
   14.5205   70.0175   -6.8531 C   0  0  0  0  0  0  0  0  0  0  0  0
   14.0866   69.1257   -5.9602 C   0  0  0  0  0  0  0  0  0  0  0  0
   15.0486   68.1750   -5.3652 C   0  0  0  0  0  0  0  0  0  0  0  0
   17.0163   67.6938   -5.4383 H   0  0  0  0  0  0  0  0  0  0  0  0
   16.1538   72.2662   -4.5033 O   0  0  0  0  0  0  0  0  0  0  0  0
   17.0756   71.7525   -3.2786 P   0  0  2  0  0  0  0  0  0  0  0  0
   17.3134   70.1892   -3.6250 O   0  0  0  0  0  0  0  0  0  0  0  0
   16.4891   72.0024   -1.9194 O   0  0  0  0  0  0  0  0  0  0  0  0
   18.5102   72.4473   -3.5268 O   0  0  0  0  0  0  0  0  0  0  0  0
   20.0926   72.4677   -1.7648 O   0  0  0  0  0  0  0  0  0  0  0  0
   21.6359   75.3293   -4.3137 O   0  0  0  0  0  0  0  0  0  0  0  0
   18.7641   75.2043   -3.7927 O   0  0  0  0  0  0  0  0  0  0  0  0
   22.8558   72.6947   -4.1680 O   0  0  0  0  0  0  0  0  0  0  0  0
   20.9350   74.1351   -3.9667 C   0  0  2  0  0  0  0  0  0  0  0  0
   19.7498   74.4810   -3.0648 C   0  0  2  0  0  0  0  0  0  0  0  0
   21.9097   73.2107   -3.2337 C   0  0  1  0  0  0  0  0  0  0  0  0
   19.1140   73.2155   -2.4876 C   0  0  1  0  0  0  0  0  0  0  0  0
   21.1819   72.0399   -2.5794 C   0  0  1  0  0  0  0  0  0  0  0  0
   21.0363   75.9323   -4.7807 H   0  0  0  0  0  0  0  0  0  0  0  0
   19.1607   76.0084   -4.1620 H   0  0  0  0  0  0  0  0  0  0  0  0
   23.3258   73.4298   -4.5917 H   0  0  0  0  0  0  0  0  0  0  0  0
   23.0603   72.1640   -1.1803 O   0  0  0  0  0  0  0  0  0  0  0  0
   21.9364   70.1810   -1.2391 O   0  0  0  0  0  0  0  0  0  0  0  0
   22.0729   71.3382   -1.6068 C   0  0  0  0  0  0  0  0  0  0  0  0
  1  4  1  0
  1 24  1  0
  1  2  1  6
  1  3  2  0
 25 28  1  0
 25 24  1  0
 25 26  1  6
 25 27  2  0
  6 11  1  0
  6 12  1  0
 29 36  1  0
 29 37  1  0
  9  7  1  6
  7 13  1  0
 10  8  1  6
  8 14  1  0
  4  5  1  0
 36 28  1  6
 33 30  1  1
 30 38  1  0
 34 31  1  6
 31 39  1  0
 35 32  1  6
 32 40  1  0
 41 43  1  0
 15 19  2  0
 42 43  2  0
 16 22  2  0
 12 17  1  1
 17 19  1  0
 17 20  1  0
 18 19  1  0
 18 22  1  0
 18 23  1  0
  9 10  1  0
  9 11  1  0
 10 12  1  0
 11  5  1  1
 33 34  1  0
 33 35  1  0
 34 36  1  0
 35 37  1  0
 37 43  1  1
 20 21  2  0
 21 22  1  0
M  CHG  3   2  -1  26  -1  41  -1
M  END
>  <COMPND>  (164) 
    udp_gluA.pdb 

>  <AUTHOR>  (164) 
    GENERATED BY OPEN BABEL 3.1.1

>  <MASTER>  (164) 
        0    0    0    0    0    0    0    0   56    0   56    0

>  <minimizedAffinity>  (164) 
-6.84975

>  <CNNscore>  (164) 
0.5892598033

>  <CNNaffinity>  (164) 
4.2288293839

>  <CNN_VS>  (164) 
2.4918792248

>  <CNNaffinity_variance>  (164) 
0.3176220357

$$$$
165
     RDKit          3D

 43 45  0  0  0  0  0  0  0  0999 V2000
   19.1782   73.6887   -7.4998 P   0  0  2  0  0  0  0  0  0  0  0  0
   17.9903   73.2368   -6.4980 O   0  0  0  0  0  0  0  0  0  0  0  0
   19.1576   75.1363   -7.8946 O   0  0  0  0  0  0  0  0  0  0  0  0
   19.0846   72.6271   -8.7173 O   0  0  0  0  0  0  0  0  0  0  0  0
   19.8855   71.4609   -8.6604 C   0  0  0  0  0  0  0  0  0  0  0  0
   18.8784   69.3508   -8.1027 O   0  0  0  0  0  0  0  0  0  0  0  0
   17.2549   69.6761  -10.6027 O   0  0  0  0  0  0  0  0  0  0  0  0
   15.4983   70.4128   -8.6514 O   0  0  0  0  0  0  0  0  0  0  0  0
   17.6902   70.6679   -9.6725 C   0  0  1  0  0  0  0  0  0  0  0  0
   16.8771   70.5841   -8.3981 C   0  0  2  0  0  0  0  0  0  0  0  0
   19.0810   70.2804   -9.1891 C   0  0  1  0  0  0  0  0  0  0  0  0
   17.4982   69.3827   -7.7062 C   0  0  2  0  0  0  0  0  0  0  0  0
   16.3681   69.9022  -10.9256 H   0  0  0  0  0  0  0  0  0  0  0  0
   15.1498   71.2041   -9.0923 H   0  0  0  0  0  0  0  0  0  0  0  0
   15.1773   68.8461   -6.1889 O   0  0  0  0  0  0  0  0  0  0  0  0
   17.3346   69.7736   -2.2228 O   0  0  0  0  0  0  0  0  0  0  0  0
   17.4255   69.4761   -6.2755 N   0  0  0  0  0  0  0  0  0  0  0  0
   16.2537   69.3095   -4.2150 N   0  0  0  0  0  0  0  0  0  0  0  0
   16.2111   69.1853   -5.6100 C   0  0  0  0  0  0  0  0  0  0  0  0
   18.5480   69.8503   -5.5469 C   0  0  0  0  0  0  0  0  0  0  0  0
   18.5733   69.9642   -4.2176 C   0  0  0  0  0  0  0  0  0  0  0  0
   17.3456   69.6789   -3.4463 C   0  0  0  0  0  0  0  0  0  0  0  0
   15.4196   69.1142   -3.7299 H   0  0  0  0  0  0  0  0  0  0  0  0
   20.5121   73.2240   -6.7141 O   0  0  0  0  0  0  0  0  0  0  0  0
   21.4671   74.0203   -5.6809 P   0  0  2  0  0  0  0  0  0  0  0  0
   21.5927   75.4889   -6.3500 O   0  0  0  0  0  0  0  0  0  0  0  0
   22.7826   73.3475   -5.4147 O   0  0  0  0  0  0  0  0  0  0  0  0
   20.5537   74.2466   -4.3706 O   0  0  0  0  0  0  0  0  0  0  0  0
   20.8946   72.4776   -2.8332 O   0  0  0  0  0  0  0  0  0  0  0  0
   17.9592   74.6833   -0.9393 O   0  0  0  0  0  0  0  0  0  0  0  0
   17.8279   74.2070   -3.8186 O   0  0  0  0  0  0  0  0  0  0  0  0
   20.7108   74.8147   -0.0107 O   0  0  0  0  0  0  0  0  0  0  0  0
   19.1009   74.4758   -1.7709 C   0  0  2  0  0  0  0  0  0  0  0  0
   18.7278   73.5530   -2.9314 C   0  0  2  0  0  0  0  0  0  0  0  0
   20.1989   73.8388   -0.9162 C   0  0  1  0  0  0  0  0  0  0  0  0
   19.9717   73.1238   -3.7108 C   0  0  1  0  0  0  0  0  0  0  0  0
   21.3476   73.3236   -1.7785 C   0  0  1  0  0  0  0  0  0  0  0  0
   17.2481   75.0874   -1.4611 H   0  0  0  0  0  0  0  0  0  0  0  0
   17.0364   74.4824   -3.3307 H   0  0  0  0  0  0  0  0  0  0  0  0
   19.9896   75.1509    0.5440 H   0  0  0  0  0  0  0  0  0  0  0  0
   21.9599   71.1234   -1.2439 O   0  0  0  0  0  0  0  0  0  0  0  0
   23.1126   72.8022   -0.2182 O   0  0  0  0  0  0  0  0  0  0  0  0
   22.2423   72.4249   -0.9885 C   0  0  0  0  0  0  0  0  0  0  0  0
  1  4  1  0
  1 24  1  0
  1  2  1  1
  1  3  2  0
 25 28  1  0
 25 24  1  0
 25 26  1  6
 25 27  2  0
  6 11  1  0
  6 12  1  0
 29 36  1  0
 29 37  1  0
  9  7  1  6
  7 13  1  0
 10  8  1  6
  8 14  1  0
  4  5  1  0
 36 28  1  1
 33 30  1  1
 30 38  1  0
 34 31  1  6
 31 39  1  0
 35 32  1  1
 32 40  1  0
 41 43  1  0
 15 19  2  0
 42 43  2  0
 16 22  2  0
 12 17  1  1
 17 19  1  0
 17 20  1  0
 18 19  1  0
 18 22  1  0
 18 23  1  0
  9 10  1  0
  9 11  1  0
 10 12  1  0
 11  5  1  1
 33 34  1  0
 33 35  1  0
 34 36  1  0
 35 37  1  0
 37 43  1  1
 20 21  2  0
 21 22  1  0
M  CHG  3   2  -1  26  -1  41  -1
M  END
>  <COMPND>  (165) 
    udp_gluA.pdb 

>  <AUTHOR>  (165) 
    GENERATED BY OPEN BABEL 3.1.1

>  <MASTER>  (165) 
        0    0    0    0    0    0    0    0   56    0   56    0

>  <minimizedAffinity>  (165) 
-8.03859

>  <CNNscore>  (165) 
0.5870209336

>  <CNNaffinity>  (165) 
4.3487448692

>  <CNN_VS>  (165) 
2.5528042316

>  <CNNaffinity_variance>  (165) 
0.5672959089

$$$$
166
     RDKit          3D

 43 45  0  0  0  0  0  0  0  0999 V2000
   20.0434   70.7625   -2.9175 P   0  0  2  0  0  0  0  0  0  0  0  0
   19.9808   69.4625   -3.8791 O   0  0  0  0  0  0  0  0  0  0  0  0
   20.8415   70.5822   -1.6595 O   0  0  0  0  0  0  0  0  0  0  0  0
   18.4909   71.1693   -2.7123 O   0  0  0  0  0  0  0  0  0  0  0  0
   17.8187   71.8271   -3.7706 C   0  0  0  0  0  0  0  0  0  0  0  0
   15.9722   71.3907   -5.2462 O   0  0  0  0  0  0  0  0  0  0  0  0
   14.9483   69.5442   -3.1170 O   0  0  0  0  0  0  0  0  0  0  0  0
   16.0784   67.8233   -4.9052 O   0  0  0  0  0  0  0  0  0  0  0  0
   16.2942   69.8065   -3.5150 C   0  0  1  0  0  0  0  0  0  0  0  0
   16.5880   69.1389   -4.8417 C   0  0  2  0  0  0  0  0  0  0  0  0
   16.3995   71.2831   -3.8710 C   0  0  1  0  0  0  0  0  0  0  0  0
   15.9083   70.0773   -5.8243 C   0  0  2  0  0  0  0  0  0  0  0  0
   14.8564   68.6065   -2.8846 H   0  0  0  0  0  0  0  0  0  0  0  0
   16.5432   67.2652   -4.2614 H   0  0  0  0  0  0  0  0  0  0  0  0
   14.5798   70.4678   -8.2858 O   0  0  0  0  0  0  0  0  0  0  0  0
   18.5112   70.1368  -10.6688 O   0  0  0  0  0  0  0  0  0  0  0  0
   16.5604   70.0978   -7.1030 N   0  0  0  0  0  0  0  0  0  0  0  0
   16.5390   70.3016   -9.4704 N   0  0  0  0  0  0  0  0  0  0  0  0
   15.8009   70.3012   -8.2795 C   0  0  0  0  0  0  0  0  0  0  0  0
   17.9362   69.9195   -7.1830 C   0  0  0  0  0  0  0  0  0  0  0  0
   18.6257   69.9225   -8.3255 C   0  0  0  0  0  0  0  0  0  0  0  0
   17.9074   70.1279   -9.6003 C   0  0  0  0  0  0  0  0  0  0  0  0
   16.0317   70.4393  -10.3028 H   0  0  0  0  0  0  0  0  0  0  0  0
   20.5943   71.9179   -3.9046 O   0  0  0  0  0  0  0  0  0  0  0  0
   21.6588   73.1088   -3.6548 P   0  0  2  0  0  0  0  0  0  0  0  0
   23.0053   72.3179   -3.2283 O   0  0  0  0  0  0  0  0  0  0  0  0
   21.2069   74.1404   -2.6621 O   0  0  0  0  0  0  0  0  0  0  0  0
   21.9763   73.6893   -5.1261 O   0  0  0  0  0  0  0  0  0  0  0  0
   19.8918   74.6896   -5.6395 O   0  0  0  0  0  0  0  0  0  0  0  0
   22.3139   76.2182   -8.6169 O   0  0  0  0  0  0  0  0  0  0  0  0
   22.5155   73.4092   -7.8403 O   0  0  0  0  0  0  0  0  0  0  0  0
   21.5373   77.8873   -6.3670 O   0  0  0  0  0  0  0  0  0  0  0  0
   22.0055   75.7220   -7.3143 C   0  0  2  0  0  0  0  0  0  0  0  0
   21.4793   74.2907   -7.4233 C   0  0  2  0  0  0  0  0  0  0  0  0
   20.9417   76.6349   -6.7002 C   0  0  1  0  0  0  0  0  0  0  0  0
   20.9245   73.8082   -6.0823 C   0  0  1  0  0  0  0  0  0  0  0  0
   20.3479   76.0248   -5.4338 C   0  0  1  0  0  0  0  0  0  0  0  0
   22.9881   75.6537   -9.0268 H   0  0  0  0  0  0  0  0  0  0  0  0
   22.8723   73.7096   -8.6905 H   0  0  0  0  0  0  0  0  0  0  0  0
   21.9193   78.2861   -7.1644 H   0  0  0  0  0  0  0  0  0  0  0  0
   18.2709   75.9206   -4.3490 O   0  0  0  0  0  0  0  0  0  0  0  0
   18.8614   77.9186   -5.2755 O   0  0  0  0  0  0  0  0  0  0  0  0
   19.1031   76.7462   -5.0308 C   0  0  0  0  0  0  0  0  0  0  0  0
  1  4  1  0
  1 24  1  0
  1  2  1  6
  1  3  2  0
 25 28  1  0
 25 24  1  0
 25 26  1  1
 25 27  2  0
  6 11  1  0
  6 12  1  0
 29 36  1  0
 29 37  1  0
  9  7  1  6
  7 13  1  0
 10  8  1  1
  8 14  1  0
  4  5  1  0
 36 28  1  1
 33 30  1  6
 30 38  1  0
 34 31  1  1
 31 39  1  0
 35 32  1  1
 32 40  1  0
 41 43  1  0
 15 19  2  0
 42 43  2  0
 16 22  2  0
 12 17  1  6
 17 19  1  0
 17 20  1  0
 18 19  1  0
 18 22  1  0
 18 23  1  0
  9 10  1  0
  9 11  1  0
 10 12  1  0
 11  5  1  6
 33 34  1  0
 33 35  1  0
 34 36  1  0
 35 37  1  0
 37 43  1  6
 20 21  2  0
 21 22  1  0
M  CHG  3   2  -1  26  -1  41  -1
M  END
>  <COMPND>  (166) 
    udp_gluA.pdb 

>  <AUTHOR>  (166) 
    GENERATED BY OPEN BABEL 3.1.1

>  <MASTER>  (166) 
        0    0    0    0    0    0    0    0   56    0   56    0

>  <minimizedAffinity>  (166) 
-7.15101

>  <CNNscore>  (166) 
0.5589929819

>  <CNNaffinity>  (166) 
4.2663974762

>  <CNN_VS>  (166) 
2.3848862648

>  <CNNaffinity_variance>  (166) 
0.5044283867

$$$$
167
     RDKit          3D

 43 45  0  0  0  0  0  0  0  0999 V2000
   19.3114   70.5121   -3.4327 P   0  0  2  0  0  0  0  0  0  0  0  0
   20.3234   69.2928   -3.1042 O   0  0  0  0  0  0  0  0  0  0  0  0
   17.9468   70.3850   -2.8216 O   0  0  0  0  0  0  0  0  0  0  0  0
   19.3509   70.6259   -5.0462 O   0  0  0  0  0  0  0  0  0  0  0  0
   19.2255   71.9064   -5.6370 C   0  0  0  0  0  0  0  0  0  0  0  0
   18.2061   70.5351   -7.3275 O   0  0  0  0  0  0  0  0  0  0  0  0
   18.4208   72.9221   -9.1297 O   0  0  0  0  0  0  0  0  0  0  0  0
   15.8025   72.9824   -8.3703 O   0  0  0  0  0  0  0  0  0  0  0  0
   18.1454   72.8686   -7.7298 C   0  0  1  0  0  0  0  0  0  0  0  0
   16.7314   72.3822   -7.4920 C   0  0  2  0  0  0  0  0  0  0  0  0
   18.9751   71.7414   -7.1304 C   0  0  1  0  0  0  0  0  0  0  0  0
   16.8699   70.8867   -7.7202 C   0  0  2  0  0  0  0  0  0  0  0  0
   17.9019   73.6351   -9.5347 H   0  0  0  0  0  0  0  0  0  0  0  0
   15.7504   73.9337   -8.1850 H   0  0  0  0  0  0  0  0  0  0  0  0
   14.1385   70.5645   -8.3625 O   0  0  0  0  0  0  0  0  0  0  0  0
   13.3866   67.9406   -4.6485 O   0  0  0  0  0  0  0  0  0  0  0  0
   15.9377   70.1245   -6.9385 N   0  0  0  0  0  0  0  0  0  0  0  0
   13.7664   69.2588   -6.5116 N   0  0  0  0  0  0  0  0  0  0  0  0
   14.5872   70.0259   -7.3488 C   0  0  0  0  0  0  0  0  0  0  0  0
   16.3638   69.4838   -5.7814 C   0  0  0  0  0  0  0  0  0  0  0  0
   15.5697   68.7560   -4.9936 C   0  0  0  0  0  0  0  0  0  0  0  0
   14.1441   68.6034   -5.3508 C   0  0  0  0  0  0  0  0  0  0  0  0
   12.8214   69.1773   -6.7756 H   0  0  0  0  0  0  0  0  0  0  0  0
   20.1440   71.8131   -2.9562 O   0  0  0  0  0  0  0  0  0  0  0  0
   21.5293   71.9438   -2.1331 P   0  0  2  0  0  0  0  0  0  0  0  0
   22.6565   71.8755   -3.2929 O   0  0  0  0  0  0  0  0  0  0  0  0
   21.6983   70.9226   -1.0457 O   0  0  0  0  0  0  0  0  0  0  0  0
   21.5605   73.4745   -1.6247 O   0  0  0  0  0  0  0  0  0  0  0  0
   22.6697   75.4643   -2.2724 O   0  0  0  0  0  0  0  0  0  0  0  0
   22.9653   75.6391    1.8447 O   0  0  0  0  0  0  0  0  0  0  0  0
   23.3952   73.1168    0.4349 O   0  0  0  0  0  0  0  0  0  0  0  0
   21.0519   77.3227    0.4463 O   0  0  0  0  0  0  0  0  0  0  0  0
   22.3619   75.3060    0.5944 C   0  0  2  0  0  0  0  0  0  0  0  0
   23.2951   74.3884   -0.1958 C   0  0  2  0  0  0  0  0  0  0  0  0
   22.1180   76.6066   -0.1743 C   0  0  1  0  0  0  0  0  0  0  0  0
   22.7908   74.1963   -1.6267 C   0  0  1  0  0  0  0  0  0  0  0  0
   21.7407   76.3326   -1.6272 C   0  0  1  0  0  0  0  0  0  0  0  0
   23.1297   74.8279    2.3508 H   0  0  0  0  0  0  0  0  0  0  0  0
   23.7144   73.2312    1.3434 H   0  0  0  0  0  0  0  0  0  0  0  0
   21.2793   77.5033    1.3718 H   0  0  0  0  0  0  0  0  0  0  0  0
   22.8738   77.5205   -3.3025 O   0  0  0  0  0  0  0  0  0  0  0  0
   21.0631   78.5311   -2.3543 O   0  0  0  0  0  0  0  0  0  0  0  0
   21.8272   77.5817   -2.4424 C   0  0  0  0  0  0  0  0  0  0  0  0
  1  4  1  0
  1 24  1  0
  1  2  1  6
  1  3  2  0
 25 28  1  0
 25 24  1  0
 25 26  1  6
 25 27  2  0
  6 11  1  0
  6 12  1  0
 29 36  1  0
 29 37  1  0
  9  7  1  6
  7 13  1  0
 10  8  1  6
  8 14  1  0
  4  5  1  0
 36 28  1  1
 33 30  1  1
 30 38  1  0
 34 31  1  1
 31 39  1  0
 35 32  1  1
 32 40  1  0
 41 43  1  0
 15 19  2  0
 42 43  2  0
 16 22  2  0
 12 17  1  1
 17 19  1  0
 17 20  1  0
 18 19  1  0
 18 22  1  0
 18 23  1  0
  9 10  1  0
  9 11  1  0
 10 12  1  0
 11  5  1  1
 33 34  1  0
 33 35  1  0
 34 36  1  0
 35 37  1  0
 37 43  1  6
 20 21  2  0
 21 22  1  0
M  CHG  3   2  -1  26  -1  41  -1
M  END
>  <COMPND>  (167) 
    udp_gluA.pdb 

>  <AUTHOR>  (167) 
    GENERATED BY OPEN BABEL 3.1.1

>  <MASTER>  (167) 
        0    0    0    0    0    0    0    0   56    0   56    0

>  <minimizedAffinity>  (167) 
-7.02992

>  <CNNscore>  (167) 
0.5309771895

>  <CNNaffinity>  (167) 
4.2361698151

>  <CNN_VS>  (167) 
2.2493095398

>  <CNNaffinity_variance>  (167) 
0.1207234263

$$$$
168
     RDKit          3D

 43 45  0  0  0  0  0  0  0  0999 V2000
   16.0078   70.4596   -3.6660 P   0  0  2  0  0  0  0  0  0  0  0  0
   16.2339   68.9608   -4.2329 O   0  0  0  0  0  0  0  0  0  0  0  0
   15.4503   70.5333   -2.2747 O   0  0  0  0  0  0  0  0  0  0  0  0
   15.1262   71.1807   -4.8152 O   0  0  0  0  0  0  0  0  0  0  0  0
   15.6863   72.2830   -5.5051 C   0  0  0  0  0  0  0  0  0  0  0  0
   16.3154   72.9244   -7.7345 O   0  0  0  0  0  0  0  0  0  0  0  0
   14.5831   70.6642   -8.6738 O   0  0  0  0  0  0  0  0  0  0  0  0
   17.0906   69.6080   -8.8545 O   0  0  0  0  0  0  0  0  0  0  0  0
   15.4115   70.7461   -7.5138 C   0  0  1  0  0  0  0  0  0  0  0  0
   16.8701   70.6271   -7.9019 C   0  0  2  0  0  0  0  0  0  0  0  0
   15.3381   72.1716   -6.9838 C   0  0  1  0  0  0  0  0  0  0  0  0
   17.1648   72.0131   -8.4496 C   0  0  2  0  0  0  0  0  0  0  0  0
   14.6138   69.7623   -9.0305 H   0  0  0  0  0  0  0  0  0  0  0  0
   16.8894   68.7455   -8.4576 H   0  0  0  0  0  0  0  0  0  0  0  0
   19.3103   71.1609  -10.0765 O   0  0  0  0  0  0  0  0  0  0  0  0
   22.3750   73.5599   -7.6074 O   0  0  0  0  0  0  0  0  0  0  0  0
   18.5335   72.3998   -8.2544 N   0  0  0  0  0  0  0  0  0  0  0  0
   20.8348   72.3557   -8.8446 N   0  0  0  0  0  0  0  0  0  0  0  0
   19.5353   71.9154   -9.1284 C   0  0  0  0  0  0  0  0  0  0  0  0
   18.8716   73.2503   -7.2088 C   0  0  0  0  0  0  0  0  0  0  0  0
   20.1147   73.6613   -6.9510 C   0  0  0  0  0  0  0  0  0  0  0  0
   21.2202   73.2005   -7.8163 C   0  0  0  0  0  0  0  0  0  0  0  0
   21.5496   72.0301   -9.4382 H   0  0  0  0  0  0  0  0  0  0  0  0
   17.4636   71.1388   -3.8449 O   0  0  0  0  0  0  0  0  0  0  0  0
   18.9479   70.5021   -3.7733 P   0  0  2  0  0  0  0  0  0  0  0  0
   19.2873   70.1800   -5.3230 O   0  0  0  0  0  0  0  0  0  0  0  0
   19.0674   69.3200   -2.8555 O   0  0  0  0  0  0  0  0  0  0  0  0
   19.9076   71.7426   -3.3957 O   0  0  0  0  0  0  0  0  0  0  0  0
   21.9037   72.7294   -4.2025 O   0  0  0  0  0  0  0  0  0  0  0  0
   22.6225   72.5819   -0.1369 O   0  0  0  0  0  0  0  0  0  0  0  0
   21.3692   70.3236   -1.5020 O   0  0  0  0  0  0  0  0  0  0  0  0
   21.9313   75.1044   -1.4059 O   0  0  0  0  0  0  0  0  0  0  0  0
   21.8264   72.6990   -1.3161 C   0  0  2  0  0  0  0  0  0  0  0  0
   21.9720   71.4322   -2.1596 C   0  0  2  0  0  0  0  0  0  0  0  0
   22.3173   73.9189   -2.0989 C   0  0  1  0  0  0  0  0  0  0  0  0
   21.3214   71.6110   -3.5320 C   0  0  1  0  0  0  0  0  0  0  0  0
   21.7195   73.9578   -3.5023 C   0  0  1  0  0  0  0  0  0  0  0  0
   22.3287   71.8131    0.3768 H   0  0  0  0  0  0  0  0  0  0  0  0
   21.7770   70.2045   -0.6303 H   0  0  0  0  0  0  0  0  0  0  0  0
   22.3052   75.0921   -0.5110 H   0  0  0  0  0  0  0  0  0  0  0  0
   23.7317   74.5651   -4.5433 O   0  0  0  0  0  0  0  0  0  0  0  0
   21.9482   75.9551   -4.8363 O   0  0  0  0  0  0  0  0  0  0  0  0
   22.4428   74.9445   -4.3599 C   0  0  0  0  0  0  0  0  0  0  0  0
  1  4  1  0
  1 24  1  0
  1  2  1  6
  1  3  2  0
 25 28  1  0
 25 24  1  0
 25 26  1  6
 25 27  2  0
  6 11  1  0
  6 12  1  0
 29 36  1  0
 29 37  1  0
  9  7  1  6
  7 13  1  0
 10  8  1  6
  8 14  1  0
  4  5  1  0
 36 28  1  1
 33 30  1  1
 30 38  1  0
 34 31  1  1
 31 39  1  0
 35 32  1  1
 32 40  1  0
 41 43  1  0
 15 19  2  0
 42 43  2  0
 16 22  2  0
 12 17  1  1
 17 19  1  0
 17 20  1  0
 18 19  1  0
 18 22  1  0
 18 23  1  0
  9 10  1  0
  9 11  1  0
 10 12  1  0
 11  5  1  1
 33 34  1  0
 33 35  1  0
 34 36  1  0
 35 37  1  0
 37 43  1  6
 20 21  2  0
 21 22  1  0
M  CHG  3   2  -1  26  -1  41  -1
M  END
>  <COMPND>  (168) 
    udp_gluA.pdb 

>  <AUTHOR>  (168) 
    GENERATED BY OPEN BABEL 3.1.1

>  <MASTER>  (168) 
        0    0    0    0    0    0    0    0   56    0   56    0

>  <minimizedAffinity>  (168) 
-8.14379

>  <CNNscore>  (168) 
0.5293524861

>  <CNNaffinity>  (168) 
4.2911729813

>  <CNN_VS>  (168) 
2.2715430260

>  <CNNaffinity_variance>  (168) 
0.4289091527

$$$$
169
     RDKit          3D

 43 45  0  0  0  0  0  0  0  0999 V2000
   17.3821   73.7604   -6.0906 P   0  0  2  0  0  0  0  0  0  0  0  0
   16.1519   73.2773   -7.0245 O   0  0  0  0  0  0  0  0  0  0  0  0
   17.3609   75.2134   -5.7165 O   0  0  0  0  0  0  0  0  0  0  0  0
   18.6967   73.2598   -6.8901 O   0  0  0  0  0  0  0  0  0  0  0  0
   18.6453   73.1970   -8.3036 C   0  0  0  0  0  0  0  0  0  0  0  0
   19.0272   70.9086   -7.6750 O   0  0  0  0  0  0  0  0  0  0  0  0
   19.2822   70.3401  -10.6082 O   0  0  0  0  0  0  0  0  0  0  0  0
   16.7475   69.4994  -10.0564 O   0  0  0  0  0  0  0  0  0  0  0  0
   18.4203   71.2599   -9.9376 C   0  0  1  0  0  0  0  0  0  0  0  0
   17.2972   70.5168   -9.2458 C   0  0  2  0  0  0  0  0  0  0  0  0
   19.1859   71.8480   -8.7602 C   0  0  1  0  0  0  0  0  0  0  0  0
   17.9944   69.9689   -8.0122 C   0  0  2  0  0  0  0  0  0  0  0  0
   18.8148   69.9513  -11.3645 H   0  0  0  0  0  0  0  0  0  0  0  0
   16.3149   69.8990  -10.8279 H   0  0  0  0  0  0  0  0  0  0  0  0
   18.8252   69.4249   -5.3683 O   0  0  0  0  0  0  0  0  0  0  0  0
   14.4902   69.4676   -3.8031 O   0  0  0  0  0  0  0  0  0  0  0  0
   17.1039   69.8328   -6.8945 N   0  0  0  0  0  0  0  0  0  0  0  0
   16.6653   69.4457   -4.5914 N   0  0  0  0  0  0  0  0  0  0  0  0
   17.6236   69.5590   -5.6072 C   0  0  0  0  0  0  0  0  0  0  0  0
   15.7336   69.9718   -7.0785 C   0  0  0  0  0  0  0  0  0  0  0  0
   14.8325   69.8611   -6.1005 C   0  0  0  0  0  0  0  0  0  0  0  0
   15.2924   69.5751   -4.7257 C   0  0  0  0  0  0  0  0  0  0  0  0
   17.0030   69.2533   -3.6869 H   0  0  0  0  0  0  0  0  0  0  0  0
   17.3086   72.7414   -4.8380 O   0  0  0  0  0  0  0  0  0  0  0  0
   17.4094   73.0069   -3.2464 P   0  0  2  0  0  0  0  0  0  0  0  0
   16.7475   71.6754   -2.6067 O   0  0  0  0  0  0  0  0  0  0  0  0
   16.7754   74.2907   -2.7949 O   0  0  0  0  0  0  0  0  0  0  0  0
   18.9821   72.8820   -2.9094 O   0  0  0  0  0  0  0  0  0  0  0  0
   20.9191   72.8267   -4.2711 O   0  0  0  0  0  0  0  0  0  0  0  0
   21.9236   70.1689   -1.2718 O   0  0  0  0  0  0  0  0  0  0  0  0
   19.2393   70.1553   -2.4247 O   0  0  0  0  0  0  0  0  0  0  0  0
   23.0782   72.8367   -1.3045 O   0  0  0  0  0  0  0  0  0  0  0  0
   21.2883   71.3148   -1.8387 C   0  0  2  0  0  0  0  0  0  0  0  0
   20.3446   70.8753   -2.9583 C   0  0  2  0  0  0  0  0  0  0  0  0
   22.3789   72.2347   -2.3922 C   0  0  1  0  0  0  0  0  0  0  0  0
   19.8226   72.0822   -3.7392 C   0  0  1  0  0  0  0  0  0  0  0  0
   21.7869   73.3395   -3.2626 C   0  0  1  0  0  0  0  0  0  0  0  0
   21.2499   69.5697   -0.9135 H   0  0  0  0  0  0  0  0  0  0  0  0
   19.5633   69.3883   -1.9276 H   0  0  0  0  0  0  0  0  0  0  0  0
   23.4597   72.1442   -0.7426 H   0  0  0  0  0  0  0  0  0  0  0  0
   23.5904   74.8392   -3.2611 O   0  0  0  0  0  0  0  0  0  0  0  0
   23.0483   73.8663   -5.2507 O   0  0  0  0  0  0  0  0  0  0  0  0
   22.8552   74.0210   -4.0542 C   0  0  0  0  0  0  0  0  0  0  0  0
  1  4  1  0
  1 24  1  0
  1  2  1  6
  1  3  2  0
 25 28  1  0
 25 24  1  0
 25 26  1  1
 25 27  2  0
  6 11  1  0
  6 12  1  0
 29 36  1  0
 29 37  1  0
  9  7  1  1
  7 13  1  0
 10  8  1  6
  8 14  1  0
  4  5  1  0
 36 28  1  1
 33 30  1  6
 30 38  1  0
 34 31  1  1
 31 39  1  0
 35 32  1  1
 32 40  1  0
 41 43  1  0
 15 19  2  0
 42 43  2  0
 16 22  2  0
 12 17  1  1
 17 19  1  0
 17 20  1  0
 18 19  1  0
 18 22  1  0
 18 23  1  0
  9 10  1  0
  9 11  1  0
 10 12  1  0
 11  5  1  1
 33 34  1  0
 33 35  1  0
 34 36  1  0
 35 37  1  0
 37 43  1  6
 20 21  2  0
 21 22  1  0
M  CHG  3   2  -1  26  -1  41  -1
M  END
>  <COMPND>  (169) 
    udp_gluA.pdb 

>  <AUTHOR>  (169) 
    GENERATED BY OPEN BABEL 3.1.1

>  <MASTER>  (169) 
        0    0    0    0    0    0    0    0   56    0   56    0

>  <minimizedAffinity>  (169) 
-7.52850

>  <CNNscore>  (169) 
0.5220042467

>  <CNNaffinity>  (169) 
4.3059849739

>  <CNN_VS>  (169) 
2.2477424145

>  <CNNaffinity_variance>  (169) 
0.8886610866

$$$$
170
     RDKit          3D

 43 45  0  0  0  0  0  0  0  0999 V2000
   19.7130   70.5480   -2.9189 P   0  0  2  0  0  0  0  0  0  0  0  0
   19.5717   70.7350   -4.5201 O   0  0  0  0  0  0  0  0  0  0  0  0
   20.9989   69.9217   -2.4652 O   0  0  0  0  0  0  0  0  0  0  0  0
   18.3623   69.7624   -2.4988 O   0  0  0  0  0  0  0  0  0  0  0  0
   17.5165   69.2756   -3.5246 C   0  0  0  0  0  0  0  0  0  0  0  0
   16.4588   70.9837   -4.8441 O   0  0  0  0  0  0  0  0  0  0  0  0
   13.9362   70.2944   -3.3768 O   0  0  0  0  0  0  0  0  0  0  0  0
   13.6081   69.0122   -5.7610 O   0  0  0  0  0  0  0  0  0  0  0  0
   14.9935   69.4374   -3.8085 C   0  0  1  0  0  0  0  0  0  0  0  0
   14.9267   69.2370   -5.3077 C   0  0  2  0  0  0  0  0  0  0  0  0
   16.3059   70.1921   -3.6461 C   0  0  1  0  0  0  0  0  0  0  0  0
   15.5091   70.5407   -5.8264 C   0  0  2  0  0  0  0  0  0  0  0  0
   13.0873   69.8340   -3.4713 H   0  0  0  0  0  0  0  0  0  0  0  0
   13.2826   68.1705   -5.4039 H   0  0  0  0  0  0  0  0  0  0  0  0
   14.3062   70.9806   -8.3436 O   0  0  0  0  0  0  0  0  0  0  0  0
   18.1799   69.8879  -10.5896 O   0  0  0  0  0  0  0  0  0  0  0  0
   16.1803   70.3786   -7.0850 N   0  0  0  0  0  0  0  0  0  0  0  0
   16.2364   70.4350   -9.4599 N   0  0  0  0  0  0  0  0  0  0  0  0
   15.4851   70.6249   -8.2926 C   0  0  0  0  0  0  0  0  0  0  0  0
   17.5117   69.9818   -7.1150 C   0  0  0  0  0  0  0  0  0  0  0  0
   18.2146   69.8051   -8.2355 C   0  0  0  0  0  0  0  0  0  0  0  0
   17.5622   70.0407   -9.5402 C   0  0  0  0  0  0  0  0  0  0  0  0
   15.7733   70.5984  -10.3132 H   0  0  0  0  0  0  0  0  0  0  0  0
   19.4554   72.0408   -2.3551 O   0  0  0  0  0  0  0  0  0  0  0  0
   20.2961   73.4082   -2.5482 P   0  0  2  0  0  0  0  0  0  0  0  0
   21.7362   73.0514   -1.9007 O   0  0  0  0  0  0  0  0  0  0  0  0
   19.6383   74.6236   -1.9616 O   0  0  0  0  0  0  0  0  0  0  0  0
   20.5738   73.4972   -4.1348 O   0  0  0  0  0  0  0  0  0  0  0  0
   20.9150   75.5019   -5.3489 O   0  0  0  0  0  0  0  0  0  0  0  0
   19.5191   72.9629   -8.2938 O   0  0  0  0  0  0  0  0  0  0  0  0
   18.2961   72.9676   -5.6407 O   0  0  0  0  0  0  0  0  0  0  0  0
   22.3460   73.6272   -8.1595 O   0  0  0  0  0  0  0  0  0  0  0  0
   20.2085   73.3120   -7.0935 C   0  0  2  0  0  0  0  0  0  0  0  0
   19.2267   73.9394   -6.1035 C   0  0  2  0  0  0  0  0  0  0  0  0
   21.3110   74.3100   -7.4545 C   0  0  1  0  0  0  0  0  0  0  0  0
   19.9649   74.5335   -4.9030 C   0  0  1  0  0  0  0  0  0  0  0  0
   21.9118   74.9518   -6.2073 C   0  0  1  0  0  0  0  0  0  0  0  0
   18.8134   72.3293   -8.0890 H   0  0  0  0  0  0  0  0  0  0  0  0
   17.8244   72.5863   -6.3973 H   0  0  0  0  0  0  0  0  0  0  0  0
   21.9768   73.2140   -8.9557 H   0  0  0  0  0  0  0  0  0  0  0  0
   22.2800   76.7139   -7.7109 O   0  0  0  0  0  0  0  0  0  0  0  0
   23.6935   76.5548   -5.9288 O   0  0  0  0  0  0  0  0  0  0  0  0
   22.7376   76.1432   -6.5691 C   0  0  0  0  0  0  0  0  0  0  0  0
  1  4  1  0
  1 24  1  0
  1  2  1  6
  1  3  2  0
 25 28  1  0
 25 24  1  0
 25 26  1  1
 25 27  2  0
  6 11  1  0
  6 12  1  0
 29 36  1  0
 29 37  1  0
  9  7  1  6
  7 13  1  0
 10  8  1  6
  8 14  1  0
  4  5  1  0
 36 28  1  6
 33 30  1  6
 30 38  1  0
 34 31  1  1
 31 39  1  0
 35 32  1  1
 32 40  1  0
 41 43  1  0
 15 19  2  0
 42 43  2  0
 16 22  2  0
 12 17  1  6
 17 19  1  0
 17 20  1  0
 18 19  1  0
 18 22  1  0
 18 23  1  0
  9 10  1  0
  9 11  1  0
 10 12  1  0
 11  5  1  6
 33 34  1  0
 33 35  1  0
 34 36  1  0
 35 37  1  0
 37 43  1  6
 20 21  2  0
 21 22  1  0
M  CHG  3   2  -1  26  -1  41  -1
M  END
>  <COMPND>  (170) 
    udp_gluA.pdb 

>  <AUTHOR>  (170) 
    GENERATED BY OPEN BABEL 3.1.1

>  <MASTER>  (170) 
        0    0    0    0    0    0    0    0   56    0   56    0

>  <minimizedAffinity>  (170) 
-7.11701

>  <CNNscore>  (170) 
0.5180987716

>  <CNNaffinity>  (170) 
4.2453851700

>  <CNN_VS>  (170) 
2.1995289326

>  <CNNaffinity_variance>  (170) 
0.5593864322

$$$$
171
     RDKit          3D

 43 45  0  0  0  0  0  0  0  0999 V2000
   18.9283   72.4944   -2.9072 P   0  0  2  0  0  0  0  0  0  0  0  0
   17.6858   71.4641   -2.7908 O   0  0  0  0  0  0  0  0  0  0  0  0
   18.7020   73.8343   -2.2706 O   0  0  0  0  0  0  0  0  0  0  0  0
   19.2679   72.5164   -4.4890 O   0  0  0  0  0  0  0  0  0  0  0  0
   19.3174   71.2856   -5.1871 C   0  0  0  0  0  0  0  0  0  0  0  0
   18.0915   70.3795   -7.0455 O   0  0  0  0  0  0  0  0  0  0  0  0
   18.0793   73.1649   -8.1559 O   0  0  0  0  0  0  0  0  0  0  0  0
   15.5777   72.9354   -7.0948 O   0  0  0  0  0  0  0  0  0  0  0  0
   17.9826   72.7327   -6.7985 C   0  0  1  0  0  0  0  0  0  0  0  0
   16.6096   72.1544   -6.5291 C   0  0  2  0  0  0  0  0  0  0  0  0
   18.8803   71.5148   -6.6282 C   0  0  1  0  0  0  0  0  0  0  0  0
   16.7167   70.7785   -7.1640 C   0  0  2  0  0  0  0  0  0  0  0  0
   17.5140   73.9423   -8.2891 H   0  0  0  0  0  0  0  0  0  0  0  0
   15.5503   73.8011   -6.6569 H   0  0  0  0  0  0  0  0  0  0  0  0
   13.9318   70.5247   -7.5594 O   0  0  0  0  0  0  0  0  0  0  0  0
   13.6460   67.0111   -4.5900 O   0  0  0  0  0  0  0  0  0  0  0  0
   15.8900   69.8059   -6.5071 N   0  0  0  0  0  0  0  0  0  0  0  0
   13.7919   68.7757   -6.0793 N   0  0  0  0  0  0  0  0  0  0  0  0
   14.5015   69.7628   -6.7759 C   0  0  0  0  0  0  0  0  0  0  0  0
   16.4551   68.9078   -5.6098 C   0  0  0  0  0  0  0  0  0  0  0  0
   15.7659   67.9724   -4.9536 C   0  0  0  0  0  0  0  0  0  0  0  0
   14.3095   67.8606   -5.1770 C   0  0  0  0  0  0  0  0  0  0  0  0
   12.8232   68.7275   -6.2485 H   0  0  0  0  0  0  0  0  0  0  0  0
   20.1583   71.6515   -2.2831 O   0  0  0  0  0  0  0  0  0  0  0  0
   21.7146   72.0385   -2.0785 P   0  0  2  0  0  0  0  0  0  0  0  0
   22.4900   70.9448   -2.9856 O   0  0  0  0  0  0  0  0  0  0  0  0
   22.1560   72.0770   -0.6440 O   0  0  0  0  0  0  0  0  0  0  0  0
   21.8981   73.4303   -2.8731 O   0  0  0  0  0  0  0  0  0  0  0  0
   22.6679   73.4738   -5.1125 O   0  0  0  0  0  0  0  0  0  0  0  0
   23.4113   77.3503   -3.8925 O   0  0  0  0  0  0  0  0  0  0  0  0
   23.9880   75.1029   -2.1174 O   0  0  0  0  0  0  0  0  0  0  0  0
   21.1543   76.7755   -5.6322 O   0  0  0  0  0  0  0  0  0  0  0  0
   22.7144   76.1048   -3.9231 C   0  0  2  0  0  0  0  0  0  0  0  0
   23.6578   74.9799   -3.4960 C   0  0  2  0  0  0  0  0  0  0  0  0
   22.2230   75.8728   -5.3537 C   0  0  1  0  0  0  0  0  0  0  0  0
   23.0201   73.6107   -3.7352 C   0  0  1  0  0  0  0  0  0  0  0  0
   21.7182   74.4455   -5.5448 C   0  0  1  0  0  0  0  0  0  0  0  0
   23.7330   77.5190   -2.9929 H   0  0  0  0  0  0  0  0  0  0  0  0
   24.3928   75.9696   -1.9584 H   0  0  0  0  0  0  0  0  0  0  0  0
   21.4624   77.6877   -5.5140 H   0  0  0  0  0  0  0  0  0  0  0  0
   20.4944   74.8013   -7.5139 O   0  0  0  0  0  0  0  0  0  0  0  0
   22.2708   73.3771   -7.6363 O   0  0  0  0  0  0  0  0  0  0  0  0
   21.5534   74.1310   -6.9961 C   0  0  0  0  0  0  0  0  0  0  0  0
  1  4  1  0
  1 24  1  0
  1  2  1  6
  1  3  2  0
 25 28  1  0
 25 24  1  0
 25 26  1  6
 25 27  2  0
  6 11  1  0
  6 12  1  0
 29 36  1  0
 29 37  1  0
  9  7  1  6
  7 13  1  0
 10  8  1  6
  8 14  1  0
  4  5  1  0
 36 28  1  1
 33 30  1  6
 30 38  1  0
 34 31  1  1
 31 39  1  0
 35 32  1  1
 32 40  1  0
 41 43  1  0
 15 19  2  0
 42 43  2  0
 16 22  2  0
 12 17  1  1
 17 19  1  0
 17 20  1  0
 18 19  1  0
 18 22  1  0
 18 23  1  0
  9 10  1  0
  9 11  1  0
 10 12  1  0
 11  5  1  1
 33 34  1  0
 33 35  1  0
 34 36  1  0
 35 37  1  0
 37 43  1  6
 20 21  2  0
 21 22  1  0
M  CHG  3   2  -1  26  -1  41  -1
M  END
>  <COMPND>  (171) 
    udp_gluA.pdb 

>  <AUTHOR>  (171) 
    GENERATED BY OPEN BABEL 3.1.1

>  <MASTER>  (171) 
        0    0    0    0    0    0    0    0   56    0   56    0

>  <minimizedAffinity>  (171) 
-6.94332

>  <CNNscore>  (171) 
0.4852309227

>  <CNNaffinity>  (171) 
4.2484617233

>  <CNN_VS>  (171) 
2.0614850521

>  <CNNaffinity_variance>  (171) 
0.1087978631

$$$$
172
     RDKit          3D

 43 45  0  0  0  0  0  0  0  0999 V2000
   20.8012   72.2482   -2.3491 P   0  0  2  0  0  0  0  0  0  0  0  0
   21.4477   71.1078   -3.2981 O   0  0  0  0  0  0  0  0  0  0  0  0
   21.2590   72.2178   -0.9204 O   0  0  0  0  0  0  0  0  0  0  0  0
   19.2078   72.0882   -2.5799 O   0  0  0  0  0  0  0  0  0  0  0  0
   18.7576   71.3673   -3.7122 C   0  0  0  0  0  0  0  0  0  0  0  0
   16.7396   71.6445   -4.9883 O   0  0  0  0  0  0  0  0  0  0  0  0
   15.3919   70.0156   -2.8618 O   0  0  0  0  0  0  0  0  0  0  0  0
   15.7607   68.1978   -4.8607 O   0  0  0  0  0  0  0  0  0  0  0  0
   16.7100   69.8909   -3.3963 C   0  0  1  0  0  0  0  0  0  0  0  0
   16.6581   69.2855   -4.7830 C   0  0  2  0  0  0  0  0  0  0  0  0
   17.2366   71.2912   -3.6793 C   0  0  1  0  0  0  0  0  0  0  0  0
   16.2172   70.4689   -5.6274 C   0  0  2  0  0  0  0  0  0  0  0  0
   15.0344   69.1335   -2.6729 H   0  0  0  0  0  0  0  0  0  0  0  0
   16.0857   67.4703   -4.3066 H   0  0  0  0  0  0  0  0  0  0  0  0
   14.6011   70.2188   -7.9301 O   0  0  0  0  0  0  0  0  0  0  0  0
   18.2655   70.2264  -10.7257 O   0  0  0  0  0  0  0  0  0  0  0  0
   16.7228   70.4033   -6.9694 N   0  0  0  0  0  0  0  0  0  0  0  0
   16.4278   70.2218   -9.3202 N   0  0  0  0  0  0  0  0  0  0  0  0
   15.8256   70.2776   -8.0563 C   0  0  0  0  0  0  0  0  0  0  0  0
   18.0920   70.4650   -7.1985 C   0  0  0  0  0  0  0  0  0  0  0  0
   18.6511   70.4107   -8.4089 C   0  0  0  0  0  0  0  0  0  0  0  0
   17.7839   70.2786   -9.5981 C   0  0  0  0  0  0  0  0  0  0  0  0
   15.8236   70.1323  -10.0923 H   0  0  0  0  0  0  0  0  0  0  0  0
   21.1472   73.6159   -3.1381 O   0  0  0  0  0  0  0  0  0  0  0  0
   22.5645   74.3145   -3.4802 P   0  0  2  0  0  0  0  0  0  0  0  0
   22.1331   75.7688   -4.0451 O   0  0  0  0  0  0  0  0  0  0  0  0
   23.4327   73.5212   -4.4133 O   0  0  0  0  0  0  0  0  0  0  0  0
   23.2293   74.6172   -2.0418 O   0  0  0  0  0  0  0  0  0  0  0  0
   22.1612   75.3247   -0.0499 O   0  0  0  0  0  0  0  0  0  0  0  0
   25.9174   76.9920    0.3725 O   0  0  0  0  0  0  0  0  0  0  0  0
   24.5486   77.0601   -2.2074 O   0  0  0  0  0  0  0  0  0  0  0  0
   25.1922   74.6245    1.8956 O   0  0  0  0  0  0  0  0  0  0  0  0
   24.9639   76.0196   -0.0555 C   0  0  2  0  0  0  0  0  0  0  0  0
   23.9396   76.6792   -0.9791 C   0  0  2  0  0  0  0  0  0  0  0  0
   24.2734   75.4551    1.1881 C   0  0  1  0  0  0  0  0  0  0  0  0
   22.7769   75.7303   -1.2730 C   0  0  1  0  0  0  0  0  0  0  0  0
   23.0498   74.6226    0.8163 C   0  0  1  0  0  0  0  0  0  0  0  0
   26.3689   77.3648   -0.4011 H   0  0  0  0  0  0  0  0  0  0  0  0
   25.2875   77.6621   -2.0285 H   0  0  0  0  0  0  0  0  0  0  0  0
   25.9757   75.1424    2.1380 H   0  0  0  0  0  0  0  0  0  0  0  0
   22.6729   75.0366    3.0940 O   0  0  0  0  0  0  0  0  0  0  0  0
   21.2238   73.6270    2.0394 O   0  0  0  0  0  0  0  0  0  0  0  0
   22.2046   74.3554    2.0190 C   0  0  0  0  0  0  0  0  0  0  0  0
  1  4  1  0
  1 24  1  0
  1  2  1  6
  1  3  2  0
 25 28  1  0
 25 24  1  0
 25 26  1  6
 25 27  2  0
  6 11  1  0
  6 12  1  0
 29 36  1  0
 29 37  1  0
  9  7  1  6
  7 13  1  0
 10  8  1  1
  8 14  1  0
  4  5  1  0
 36 28  1  1
 33 30  1  1
 30 38  1  0
 34 31  1  6
 31 39  1  0
 35 32  1  6
 32 40  1  0
 41 43  1  0
 15 19  2  0
 42 43  2  0
 16 22  2  0
 12 17  1  6
 17 19  1  0
 17 20  1  0
 18 19  1  0
 18 22  1  0
 18 23  1  0
  9 10  1  0
  9 11  1  0
 10 12  1  0
 11  5  1  6
 33 34  1  0
 33 35  1  0
 34 36  1  0
 35 37  1  0
 37 43  1  1
 20 21  2  0
 21 22  1  0
M  CHG  3   2  -1  26  -1  41  -1
M  END
>  <COMPND>  (172) 
    udp_gluA.pdb 

>  <AUTHOR>  (172) 
    GENERATED BY OPEN BABEL 3.1.1

>  <MASTER>  (172) 
        0    0    0    0    0    0    0    0   56    0   56    0

>  <minimizedAffinity>  (172) 
-6.89478

>  <CNNscore>  (172) 
0.4519652724

>  <CNNaffinity>  (172) 
4.3239722252

>  <CNN_VS>  (172) 
1.9542852640

>  <CNNaffinity_variance>  (172) 
0.0993202925

$$$$
173
     RDKit          3D

 43 45  0  0  0  0  0  0  0  0999 V2000
   20.9262   71.4640   -2.0969 P   0  0  2  0  0  0  0  0  0  0  0  0
   22.1172   70.8419   -1.1951 O   0  0  0  0  0  0  0  0  0  0  0  0
   20.0858   72.4998   -1.4094 O   0  0  0  0  0  0  0  0  0  0  0  0
   20.1322   70.1639   -2.6423 O   0  0  0  0  0  0  0  0  0  0  0  0
   19.4683   70.2512   -3.8897 C   0  0  0  0  0  0  0  0  0  0  0  0
   17.5643   71.3095   -4.9060 O   0  0  0  0  0  0  0  0  0  0  0  0
   15.9780   70.2612   -2.5873 O   0  0  0  0  0  0  0  0  0  0  0  0
   15.3708   68.4932   -4.5725 O   0  0  0  0  0  0  0  0  0  0  0  0
   17.0703   69.6580   -3.2813 C   0  0  1  0  0  0  0  0  0  0  0  0
   16.6170   69.1547   -4.6354 C   0  0  2  0  0  0  0  0  0  0  0  0
   18.0503   70.7592   -3.6624 C   0  0  1  0  0  0  0  0  0  0  0  0
   16.5572   70.4387   -5.4453 C   0  0  2  0  0  0  0  0  0  0  0  0
   15.3384   69.5770   -2.3334 H   0  0  0  0  0  0  0  0  0  0  0  0
   15.4613   67.6824   -4.0468 H   0  0  0  0  0  0  0  0  0  0  0  0
   14.8005   71.1516   -7.5386 O   0  0  0  0  0  0  0  0  0  0  0  0
   17.6914   69.5547  -10.7537 O   0  0  0  0  0  0  0  0  0  0  0  0
   16.8258   70.2207   -6.8385 N   0  0  0  0  0  0  0  0  0  0  0  0
   16.2416   70.3547   -9.1379 N   0  0  0  0  0  0  0  0  0  0  0  0
   15.8766   70.6159   -7.8106 C   0  0  0  0  0  0  0  0  0  0  0  0
   18.0180   69.6237   -7.2300 C   0  0  0  0  0  0  0  0  0  0  0  0
   18.3519   69.3814   -8.4990 C   0  0  0  0  0  0  0  0  0  0  0  0
   17.4151   69.7629   -9.5762 C   0  0  0  0  0  0  0  0  0  0  0  0
   15.5958   70.6191   -9.8324 H   0  0  0  0  0  0  0  0  0  0  0  0
   21.7044   71.9924   -3.4114 O   0  0  0  0  0  0  0  0  0  0  0  0
   21.8085   73.4690   -4.0614 P   0  0  2  0  0  0  0  0  0  0  0  0
   22.9254   73.2859   -5.2186 O   0  0  0  0  0  0  0  0  0  0  0  0
   22.1147   74.5568   -3.0730 O   0  0  0  0  0  0  0  0  0  0  0  0
   20.4211   73.6627   -4.8616 O   0  0  0  0  0  0  0  0  0  0  0  0
   19.9696   74.1942   -7.1249 O   0  0  0  0  0  0  0  0  0  0  0  0
   16.8825   76.1275   -5.1754 O   0  0  0  0  0  0  0  0  0  0  0  0
   19.5957   76.2057   -4.0950 O   0  0  0  0  0  0  0  0  0  0  0  0
   16.3800   73.6442   -6.6008 O   0  0  0  0  0  0  0  0  0  0  0  0
   17.8569   75.1043   -5.3794 C   0  0  2  0  0  0  0  0  0  0  0  0
   19.2548   75.7235   -5.3895 C   0  0  2  0  0  0  0  0  0  0  0  0
   17.5628   74.4321   -6.7223 C   0  0  1  0  0  0  0  0  0  0  0  0
   20.3027   74.7013   -5.8321 C   0  0  1  0  0  0  0  0  0  0  0  0
   18.7110   73.5247   -7.1545 C   0  0  1  0  0  0  0  0  0  0  0  0
   17.0495   76.5688   -4.3276 H   0  0  0  0  0  0  0  0  0  0  0  0
   18.9347   76.8546   -3.8077 H   0  0  0  0  0  0  0  0  0  0  0  0
   15.6415   74.2099   -6.3261 H   0  0  0  0  0  0  0  0  0  0  0  0
   19.6950   72.5242   -9.0339 O   0  0  0  0  0  0  0  0  0  0  0  0
   17.5807   73.3421   -9.2783 O   0  0  0  0  0  0  0  0  0  0  0  0
   18.5702   73.1385   -8.5909 C   0  0  0  0  0  0  0  0  0  0  0  0
  1  4  1  0
  1 24  1  0
  1  2  1  1
  1  3  2  0
 25 28  1  0
 25 24  1  0
 25 26  1  6
 25 27  2  0
  6 11  1  0
  6 12  1  0
 29 36  1  0
 29 37  1  0
  9  7  1  1
  7 13  1  0
 10  8  1  1
  8 14  1  0
  4  5  1  0
 36 28  1  1
 33 30  1  6
 30 38  1  0
 34 31  1  1
 31 39  1  0
 35 32  1  1
 32 40  1  0
 41 43  1  0
 15 19  2  0
 42 43  2  0
 16 22  2  0
 12 17  1  6
 17 19  1  0
 17 20  1  0
 18 19  1  0
 18 22  1  0
 18 23  1  0
  9 10  1  0
  9 11  1  0
 10 12  1  0
 11  5  1  6
 33 34  1  0
 33 35  1  0
 34 36  1  0
 35 37  1  0
 37 43  1  6
 20 21  2  0
 21 22  1  0
M  CHG  3   2  -1  26  -1  41  -1
M  END
>  <COMPND>  (173) 
    udp_gluA.pdb 

>  <AUTHOR>  (173) 
    GENERATED BY OPEN BABEL 3.1.1

>  <MASTER>  (173) 
        0    0    0    0    0    0    0    0   56    0   56    0

>  <minimizedAffinity>  (173) 
-7.28388

>  <CNNscore>  (173) 
0.4390684366

>  <CNNaffinity>  (173) 
3.9692389965

>  <CNN_VS>  (173) 
1.7427675724

>  <CNNaffinity_variance>  (173) 
0.8713890314

$$$$
174
     RDKit          3D

 43 45  0  0  0  0  0  0  0  0999 V2000
   19.7130   75.8744   -7.1744 P   0  0  2  0  0  0  0  0  0  0  0  0
   18.5180   76.6845   -6.4434 O   0  0  0  0  0  0  0  0  0  0  0  0
   20.6687   76.7256   -7.9580 O   0  0  0  0  0  0  0  0  0  0  0  0
   18.9455   74.7241   -8.0144 O   0  0  0  0  0  0  0  0  0  0  0  0
   18.1526   73.7869   -7.3090 C   0  0  0  0  0  0  0  0  0  0  0  0
   17.8192   71.4071   -7.2546 O   0  0  0  0  0  0  0  0  0  0  0  0
   17.0390   71.6376  -10.1407 O   0  0  0  0  0  0  0  0  0  0  0  0
   14.6258   71.4571   -8.8836 O   0  0  0  0  0  0  0  0  0  0  0  0
   16.7943   72.5422   -9.0634 C   0  0  1  0  0  0  0  0  0  0  0  0
   15.7100   71.9977   -8.1578 C   0  0  2  0  0  0  0  0  0  0  0  0
   18.0118   72.5242   -8.1492 C   0  0  1  0  0  0  0  0  0  0  0  0
   16.4631   70.9459   -7.3613 C   0  0  2  0  0  0  0  0  0  0  0  0
   16.2746   71.6319  -10.7384 H   0  0  0  0  0  0  0  0  0  0  0  0
   14.1790   72.1659   -9.3733 H   0  0  0  0  0  0  0  0  0  0  0  0
   16.4745   68.4993   -5.9505 O   0  0  0  0  0  0  0  0  0  0  0  0
   14.3714   70.3809   -2.3063 O   0  0  0  0  0  0  0  0  0  0  0  0
   15.9251   70.7682   -6.0422 N   0  0  0  0  0  0  0  0  0  0  0  0
   15.4261   69.4385   -4.1372 N   0  0  0  0  0  0  0  0  0  0  0  0
   15.9809   69.4975   -5.4224 C   0  0  0  0  0  0  0  0  0  0  0  0
   15.3523   71.8448   -5.3760 C   0  0  0  0  0  0  0  0  0  0  0  0
   14.8276   71.7732   -4.1511 C   0  0  0  0  0  0  0  0  0  0  0  0
   14.8449   70.4813   -3.4341 C   0  0  0  0  0  0  0  0  0  0  0  0
   15.4515   68.5637   -3.6863 H   0  0  0  0  0  0  0  0  0  0  0  0
   20.3875   75.0483   -5.9596 O   0  0  0  0  0  0  0  0  0  0  0  0
   21.7823   74.2352   -5.8746 P   0  0  2  0  0  0  0  0  0  0  0  0
   22.8673   75.3941   -5.5584 O   0  0  0  0  0  0  0  0  0  0  0  0
   22.0916   73.4141   -7.0928 O   0  0  0  0  0  0  0  0  0  0  0  0
   21.6797   73.3888   -4.5051 O   0  0  0  0  0  0  0  0  0  0  0  0
   19.7425   72.2035   -3.8333 O   0  0  0  0  0  0  0  0  0  0  0  0
   21.6597   72.7964   -0.2221 O   0  0  0  0  0  0  0  0  0  0  0  0
   21.5342   74.9411   -2.2018 O   0  0  0  0  0  0  0  0  0  0  0  0
   21.7172   70.1824   -1.4928 O   0  0  0  0  0  0  0  0  0  0  0  0
   21.5710   72.5834   -1.6309 C   0  0  2  0  0  0  0  0  0  0  0  0
   20.7905   73.7301   -2.2738 C   0  0  2  0  0  0  0  0  0  0  0  0
   20.8510   71.2532   -1.8637 C   0  0  1  0  0  0  0  0  0  0  0  0
   20.4769   73.4247   -3.7391 C   0  0  1  0  0  0  0  0  0  0  0  0
   20.4607   71.0799   -3.3287 C   0  0  1  0  0  0  0  0  0  0  0  0
   22.1138   73.6363   -0.0499 H   0  0  0  0  0  0  0  0  0  0  0  0
   21.7369   75.1409   -1.2747 H   0  0  0  0  0  0  0  0  0  0  0  0
   21.9732   70.2810   -0.5625 H   0  0  0  0  0  0  0  0  0  0  0  0
   19.2837   69.6845   -4.8014 O   0  0  0  0  0  0  0  0  0  0  0  0
   18.9429   69.3648   -2.5696 O   0  0  0  0  0  0  0  0  0  0  0  0
   19.4858   69.9591   -3.4889 C   0  0  0  0  0  0  0  0  0  0  0  0
  1  4  1  0
  1 24  1  0
  1  2  1  1
  1  3  2  0
 25 28  1  0
 25 24  1  0
 25 26  1  1
 25 27  2  0
  6 11  1  0
  6 12  1  0
 29 36  1  0
 29 37  1  0
  9  7  1  6
  7 13  1  0
 10  8  1  6
  8 14  1  0
  4  5  1  0
 36 28  1  6
 33 30  1  1
 30 38  1  0
 34 31  1  6
 31 39  1  0
 35 32  1  6
 32 40  1  0
 41 43  1  0
 15 19  2  0
 42 43  2  0
 16 22  2  0
 12 17  1  1
 17 19  1  0
 17 20  1  0
 18 19  1  0
 18 22  1  0
 18 23  1  0
  9 10  1  0
  9 11  1  0
 10 12  1  0
 11  5  1  1
 33 34  1  0
 33 35  1  0
 34 36  1  0
 35 37  1  0
 37 43  1  1
 20 21  2  0
 21 22  1  0
M  CHG  3   2  -1  26  -1  41  -1
M  END
>  <COMPND>  (174) 
    udp_gluA.pdb 

>  <AUTHOR>  (174) 
    GENERATED BY OPEN BABEL 3.1.1

>  <MASTER>  (174) 
        0    0    0    0    0    0    0    0   56    0   56    0

>  <minimizedAffinity>  (174) 
-7.51446

>  <CNNscore>  (174) 
0.4356746972

>  <CNNaffinity>  (174) 
4.2205266953

>  <CNN_VS>  (174) 
1.8387767076

>  <CNNaffinity_variance>  (174) 
0.4893352091

$$$$
175
     RDKit          3D

 43 45  0  0  0  0  0  0  0  0999 V2000
   20.8063   73.5823   -6.6589 P   0  0  2  0  0  0  0  0  0  0  0  0
   20.1692   74.9930   -6.1866 O   0  0  0  0  0  0  0  0  0  0  0  0
   22.2960   73.5886   -6.8392 O   0  0  0  0  0  0  0  0  0  0  0  0
   19.9418   73.1843   -7.9674 O   0  0  0  0  0  0  0  0  0  0  0  0
   18.5797   72.8373   -7.7980 C   0  0  0  0  0  0  0  0  0  0  0  0
   18.1117   70.5279   -7.3235 O   0  0  0  0  0  0  0  0  0  0  0  0
   17.2547   70.3058  -10.1884 O   0  0  0  0  0  0  0  0  0  0  0  0
   14.8763   70.4950   -8.8680 O   0  0  0  0  0  0  0  0  0  0  0  0
   17.0969   71.3959   -9.2799 C   0  0  1  0  0  0  0  0  0  0  0  0
   16.0123   71.0841   -8.2706 C   0  0  2  0  0  0  0  0  0  0  0  0
   18.3397   71.4599   -8.4027 C   0  0  1  0  0  0  0  0  0  0  0  0
   16.7285   70.1405   -7.3195 C   0  0  2  0  0  0  0  0  0  0  0  0
   16.4727   70.2447  -10.7597 H   0  0  0  0  0  0  0  0  0  0  0  0
   14.4557   71.1353   -9.4639 H   0  0  0  0  0  0  0  0  0  0  0  0
   16.3978   67.9286   -5.5948 O   0  0  0  0  0  0  0  0  0  0  0  0
   14.7819   70.5886   -2.1953 O   0  0  0  0  0  0  0  0  0  0  0  0
   16.2234   70.2266   -5.9785 N   0  0  0  0  0  0  0  0  0  0  0  0
   15.5923   69.2554   -3.9036 N   0  0  0  0  0  0  0  0  0  0  0  0
   16.0961   69.0548   -5.1956 C   0  0  0  0  0  0  0  0  0  0  0  0
   15.8620   71.4605   -5.4513 C   0  0  0  0  0  0  0  0  0  0  0  0
   15.3835   71.6359   -4.2180 C   0  0  0  0  0  0  0  0  0  0  0  0
   15.2187   70.4624   -3.3352 C   0  0  0  0  0  0  0  0  0  0  0  0
   15.4928   68.4540   -3.3404 H   0  0  0  0  0  0  0  0  0  0  0  0
   20.2679   72.5481   -5.5393 O   0  0  0  0  0  0  0  0  0  0  0  0
   19.5634   72.8060   -4.1073 P   0  0  2  0  0  0  0  0  0  0  0  0
   19.3820   71.3125   -3.5100 O   0  0  0  0  0  0  0  0  0  0  0  0
   18.2921   73.6013   -4.1809 O   0  0  0  0  0  0  0  0  0  0  0  0
   20.7174   73.4712   -3.1973 O   0  0  0  0  0  0  0  0  0  0  0  0
   23.0330   73.6961   -3.6408 O   0  0  0  0  0  0  0  0  0  0  0  0
   22.9956   73.3443    0.4754 O   0  0  0  0  0  0  0  0  0  0  0  0
   21.2777   71.6498   -1.1713 O   0  0  0  0  0  0  0  0  0  0  0  0
   23.4277   75.9384   -0.7635 O   0  0  0  0  0  0  0  0  0  0  0  0
   22.4885   73.7201   -0.8050 C   0  0  2  0  0  0  0  0  0  0  0  0
   22.3223   72.4741   -1.6754 C   0  0  2  0  0  0  0  0  0  0  0  0
   23.4879   74.6866   -1.4445 C   0  0  1  0  0  0  0  0  0  0  0  0
   22.0019   72.8555   -3.1213 C   0  0  1  0  0  0  0  0  0  0  0  0
   23.1731   74.9181   -2.9196 C   0  0  1  0  0  0  0  0  0  0  0  0
   22.3769   72.7299    0.9009 H   0  0  0  0  0  0  0  0  0  0  0  0
   21.4743   71.4042   -0.2540 H   0  0  0  0  0  0  0  0  0  0  0  0
   23.6260   75.8050    0.1765 H   0  0  0  0  0  0  0  0  0  0  0  0
   24.0847   75.6847   -4.9402 O   0  0  0  0  0  0  0  0  0  0  0  0
   25.3310   75.9889   -3.0551 O   0  0  0  0  0  0  0  0  0  0  0  0
   24.3193   75.5846   -3.6083 C   0  0  0  0  0  0  0  0  0  0  0  0
  1  4  1  0
  1 24  1  0
  1  2  1  1
  1  3  2  0
 25 28  1  0
 25 24  1  0
 25 26  1  1
 25 27  2  0
  6 11  1  0
  6 12  1  0
 29 36  1  0
 29 37  1  0
  9  7  1  6
  7 13  1  0
 10  8  1  6
  8 14  1  0
  4  5  1  0
 36 28  1  1
 33 30  1  1
 30 38  1  0
 34 31  1  1
 31 39  1  0
 35 32  1  1
 32 40  1  0
 41 43  1  0
 15 19  2  0
 42 43  2  0
 16 22  2  0
 12 17  1  1
 17 19  1  0
 17 20  1  0
 18 19  1  0
 18 22  1  0
 18 23  1  0
  9 10  1  0
  9 11  1  0
 10 12  1  0
 11  5  1  1
 33 34  1  0
 33 35  1  0
 34 36  1  0
 35 37  1  0
 37 43  1  6
 20 21  2  0
 21 22  1  0
M  CHG  3   2  -1  26  -1  41  -1
M  END
>  <COMPND>  (175) 
    udp_gluA.pdb 

>  <AUTHOR>  (175) 
    GENERATED BY OPEN BABEL 3.1.1

>  <MASTER>  (175) 
        0    0    0    0    0    0    0    0   56    0   56    0

>  <minimizedAffinity>  (175) 
-7.08906

>  <CNNscore>  (175) 
0.4221755266

>  <CNNaffinity>  (175) 
4.2014846802

>  <CNN_VS>  (175) 
1.7737640142

>  <CNNaffinity_variance>  (175) 
0.2987436950

$$$$
176
     RDKit          3D

 43 45  0  0  0  0  0  0  0  0999 V2000
   17.1552   75.7868   -6.4277 P   0  0  2  0  0  0  0  0  0  0  0  0
   16.0681   75.9779   -5.2442 O   0  0  0  0  0  0  0  0  0  0  0  0
   17.5830   77.0551   -7.1060 O   0  0  0  0  0  0  0  0  0  0  0  0
   16.4916   74.6660   -7.3876 O   0  0  0  0  0  0  0  0  0  0  0  0
   17.3416   73.7217   -8.0124 C   0  0  0  0  0  0  0  0  0  0  0  0
   17.1078   71.3295   -8.0040 O   0  0  0  0  0  0  0  0  0  0  0  0
   14.2665   71.7904   -8.8444 O   0  0  0  0  0  0  0  0  0  0  0  0
   14.0234   71.2790   -6.1769 O   0  0  0  0  0  0  0  0  0  0  0  0
   15.0814   72.5552   -7.9557 C   0  0  1  0  0  0  0  0  0  0  0  0
   15.2398   71.8310   -6.6356 C   0  0  2  0  0  0  0  0  0  0  0  0
   16.5044   72.5452   -8.4973 C   0  0  1  0  0  0  0  0  0  0  0  0
   16.2706   70.7695   -6.9799 C   0  0  2  0  0  0  0  0  0  0  0  0
   13.3523   71.7823   -8.5191 H   0  0  0  0  0  0  0  0  0  0  0  0
   13.4010   71.9946   -5.9710 H   0  0  0  0  0  0  0  0  0  0  0  0
   15.6269   68.7393   -5.1250 O   0  0  0  0  0  0  0  0  0  0  0  0
   19.4737   69.4842   -2.6978 O   0  0  0  0  0  0  0  0  0  0  0  0
   17.0861   70.4120   -5.8538 N   0  0  0  0  0  0  0  0  0  0  0  0
   17.5429   69.1129   -3.9173 N   0  0  0  0  0  0  0  0  0  0  0  0
   16.6717   69.3772   -4.9823 C   0  0  0  0  0  0  0  0  0  0  0  0
   18.2816   71.0817   -5.6228 C   0  0  0  0  0  0  0  0  0  0  0  0
   19.1016   70.8185   -4.6034 C   0  0  0  0  0  0  0  0  0  0  0  0
   18.7418   69.7521   -3.6459 C   0  0  0  0  0  0  0  0  0  0  0  0
   17.2747   68.3979   -3.2959 H   0  0  0  0  0  0  0  0  0  0  0  0
   18.3491   74.9784   -5.6968 O   0  0  0  0  0  0  0  0  0  0  0  0
   19.8923   75.3781   -5.4281 P   0  0  2  0  0  0  0  0  0  0  0  0
   19.7828   76.8497   -4.7627 O   0  0  0  0  0  0  0  0  0  0  0  0
   20.7662   75.3141   -6.6472 O   0  0  0  0  0  0  0  0  0  0  0  0
   20.3592   74.4181   -4.2186 O   0  0  0  0  0  0  0  0  0  0  0  0
   21.4803   74.8272   -2.1729 O   0  0  0  0  0  0  0  0  0  0  0  0
   23.0770   71.1852   -3.2928 O   0  0  0  0  0  0  0  0  0  0  0  0
   22.6776   73.2981   -5.2704 O   0  0  0  0  0  0  0  0  0  0  0  0
   21.0817   71.3168   -1.1828 O   0  0  0  0  0  0  0  0  0  0  0  0
   22.0702   72.1929   -3.1978 C   0  0  2  0  0  0  0  0  0  0  0  0
   22.5667   73.4768   -3.8631 C   0  0  2  0  0  0  0  0  0  0  0  0
   21.7850   72.4380   -1.7144 C   0  0  1  0  0  0  0  0  0  0  0  0
   21.6162   74.6414   -3.5823 C   0  0  1  0  0  0  0  0  0  0  0  0
   20.9351   73.6887   -1.5098 C   0  0  1  0  0  0  0  0  0  0  0  0
   23.2748   71.0126   -4.2268 H   0  0  0  0  0  0  0  0  0  0  0  0
   23.2792   72.5604   -5.4558 H   0  0  0  0  0  0  0  0  0  0  0  0
   21.6119   70.5141   -1.3068 H   0  0  0  0  0  0  0  0  0  0  0  0
   20.6928   75.4319    0.0408 O   0  0  0  0  0  0  0  0  0  0  0  0
   21.1314   73.3542    0.8716 O   0  0  0  0  0  0  0  0  0  0  0  0
   20.9381   74.1031   -0.0743 C   0  0  0  0  0  0  0  0  0  0  0  0
  1  4  1  0
  1 24  1  0
  1  2  1  1
  1  3  2  0
 25 28  1  0
 25 24  1  0
 25 26  1  1
 25 27  2  0
  6 11  1  0
  6 12  1  0
 29 36  1  0
 29 37  1  0
  9  7  1  6
  7 13  1  0
 10  8  1  6
  8 14  1  0
  4  5  1  0
 36 28  1  1
 33 30  1  1
 30 38  1  0
 34 31  1  6
 31 39  1  0
 35 32  1  6
 32 40  1  0
 41 43  1  0
 15 19  2  0
 42 43  2  0
 16 22  2  0
 12 17  1  1
 17 19  1  0
 17 20  1  0
 18 19  1  0
 18 22  1  0
 18 23  1  0
  9 10  1  0
  9 11  1  0
 10 12  1  0
 11  5  1  1
 33 34  1  0
 33 35  1  0
 34 36  1  0
 35 37  1  0
 37 43  1  1
 20 21  2  0
 21 22  1  0
M  CHG  3   2  -1  26  -1  41  -1
M  END
>  <COMPND>  (176) 
    udp_gluA.pdb 

>  <AUTHOR>  (176) 
    GENERATED BY OPEN BABEL 3.1.1

>  <MASTER>  (176) 
        0    0    0    0    0    0    0    0   56    0   56    0

>  <minimizedAffinity>  (176) 
-6.35047

>  <CNNscore>  (176) 
0.4128954113

>  <CNNaffinity>  (176) 
4.1306300163

>  <CNN_VS>  (176) 
1.7055181265

>  <CNNaffinity_variance>  (176) 
0.3687278628

$$$$
177
     RDKit          3D

 43 45  0  0  0  0  0  0  0  0999 V2000
   19.2695   75.5129   -6.9546 P   0  0  2  0  0  0  0  0  0  0  0  0
   18.1999   76.1500   -5.9207 O   0  0  0  0  0  0  0  0  0  0  0  0
   19.2311   76.0877   -8.3402 O   0  0  0  0  0  0  0  0  0  0  0  0
   19.0114   73.9192   -6.8476 O   0  0  0  0  0  0  0  0  0  0  0  0
   18.2041   73.2975   -7.8306 C   0  0  0  0  0  0  0  0  0  0  0  0
   18.6680   70.9800   -7.3930 O   0  0  0  0  0  0  0  0  0  0  0  0
   19.4015   70.7715  -10.2930 O   0  0  0  0  0  0  0  0  0  0  0  0
   16.8875   69.7168  -10.2370 O   0  0  0  0  0  0  0  0  0  0  0  0
   18.3793   71.5523   -9.6734 C   0  0  1  0  0  0  0  0  0  0  0  0
   17.2280   70.6658   -9.2481 C   0  0  2  0  0  0  0  0  0  0  0  0
   18.9118   72.0467   -8.3354 C   0  0  1  0  0  0  0  0  0  0  0  0
   17.7747   70.0233   -7.9846 C   0  0  2  0  0  0  0  0  0  0  0  0
   19.0844   70.4445  -11.1499 H   0  0  0  0  0  0  0  0  0  0  0  0
   16.5445   70.1753  -11.0207 H   0  0  0  0  0  0  0  0  0  0  0  0
   15.1024   70.9155   -8.1834 O   0  0  0  0  0  0  0  0  0  0  0  0
   13.8941   68.7356   -4.3062 O   0  0  0  0  0  0  0  0  0  0  0  0
   16.7411   69.7038   -7.0410 N   0  0  0  0  0  0  0  0  0  0  0  0
   14.5034   69.8298   -6.2516 N   0  0  0  0  0  0  0  0  0  0  0  0
   15.4311   70.2030   -7.2330 C   0  0  0  0  0  0  0  0  0  0  0  0
   17.0286   68.9037   -5.9419 C   0  0  0  0  0  0  0  0  0  0  0  0
   16.1337   68.5564   -5.0149 C   0  0  0  0  0  0  0  0  0  0  0  0
   14.7421   69.0369   -5.1408 C   0  0  0  0  0  0  0  0  0  0  0  0
   13.5851   70.1669   -6.3627 H   0  0  0  0  0  0  0  0  0  0  0  0
   20.6776   75.7055   -6.1845 O   0  0  0  0  0  0  0  0  0  0  0  0
   21.8185   74.6357   -5.7751 P   0  0  2  0  0  0  0  0  0  0  0  0
   23.1583   75.5397   -5.6860 O   0  0  0  0  0  0  0  0  0  0  0  0
   21.9249   73.4624   -6.7057 O   0  0  0  0  0  0  0  0  0  0  0  0
   21.4861   74.2484   -4.2447 O   0  0  0  0  0  0  0  0  0  0  0  0
   20.5372   72.2059   -3.5121 O   0  0  0  0  0  0  0  0  0  0  0  0
   19.3943   74.7921   -0.4999 O   0  0  0  0  0  0  0  0  0  0  0  0
   19.2638   75.6262   -3.2967 O   0  0  0  0  0  0  0  0  0  0  0  0
   21.5576   72.9014   -0.0571 O   0  0  0  0  0  0  0  0  0  0  0  0
   20.2435   74.2841   -1.5289 C   0  0  2  0  0  0  0  0  0  0  0  0
   19.4936   74.2912   -2.8613 C   0  0  2  0  0  0  0  0  0  0  0  0
   20.6427   72.8561   -1.1504 C   0  0  1  0  0  0  0  0  0  0  0  0
   20.2836   73.5453   -3.9376 C   0  0  1  0  0  0  0  0  0  0  0  0
   21.3129   72.1371   -2.3177 C   0  0  1  0  0  0  0  0  0  0  0  0
   19.1277   75.6990   -0.7188 H   0  0  0  0  0  0  0  0  0  0  0  0
   18.7632   76.1054   -2.6183 H   0  0  0  0  0  0  0  0  0  0  0  0
   21.1433   73.3568    0.6925 H   0  0  0  0  0  0  0  0  0  0  0  0
   20.6846   69.9764   -2.9796 O   0  0  0  0  0  0  0  0  0  0  0  0
   22.0249   70.1533   -1.1434 O   0  0  0  0  0  0  0  0  0  0  0  0
   21.3984   70.6684   -2.0573 C   0  0  0  0  0  0  0  0  0  0  0  0
  1  4  1  0
  1 24  1  0
  1  2  1  1
  1  3  2  0
 25 28  1  0
 25 24  1  0
 25 26  1  1
 25 27  2  0
  6 11  1  0
  6 12  1  0
 29 36  1  0
 29 37  1  0
  9  7  1  1
  7 13  1  0
 10  8  1  6
  8 14  1  0
  4  5  1  0
 36 28  1  1
 33 30  1  1
 30 38  1  0
 34 31  1  6
 31 39  1  0
 35 32  1  1
 32 40  1  0
 41 43  1  0
 15 19  2  0
 42 43  2  0
 16 22  2  0
 12 17  1  1
 17 19  1  0
 17 20  1  0
 18 19  1  0
 18 22  1  0
 18 23  1  0
  9 10  1  0
  9 11  1  0
 10 12  1  0
 11  5  1  1
 33 34  1  0
 33 35  1  0
 34 36  1  0
 35 37  1  0
 37 43  1  1
 20 21  2  0
 21 22  1  0
M  CHG  3   2  -1  26  -1  41  -1
M  END
>  <COMPND>  (177) 
    udp_gluA.pdb 

>  <AUTHOR>  (177) 
    GENERATED BY OPEN BABEL 3.1.1

>  <MASTER>  (177) 
        0    0    0    0    0    0    0    0   56    0   56    0

>  <minimizedAffinity>  (177) 
-7.63431

>  <CNNscore>  (177) 
0.3987555504

>  <CNNaffinity>  (177) 
4.1856870651

>  <CNN_VS>  (177) 
1.6690659523

>  <CNNaffinity_variance>  (177) 
0.4621280134

$$$$
178
     RDKit          3D

 43 45  0  0  0  0  0  0  0  0999 V2000
   21.2072   73.3928   -5.0917 P   0  0  2  0  0  0  0  0  0  0  0  0
   20.4228   74.7484   -4.6841 O   0  0  0  0  0  0  0  0  0  0  0  0
   22.6995   73.5254   -5.1759 O   0  0  0  0  0  0  0  0  0  0  0  0
   20.4672   72.9082   -6.4465 O   0  0  0  0  0  0  0  0  0  0  0  0
   19.4263   71.9539   -6.3441 C   0  0  0  0  0  0  0  0  0  0  0  0
   18.3159   70.2244   -7.5904 O   0  0  0  0  0  0  0  0  0  0  0  0
   18.4210   72.0991   -9.9282 O   0  0  0  0  0  0  0  0  0  0  0  0
   15.8500   72.3716   -9.0610 O   0  0  0  0  0  0  0  0  0  0  0  0
   18.2259   72.3907   -8.5442 C   0  0  1  0  0  0  0  0  0  0  0  0
   16.8292   71.9925   -8.1165 C   0  0  2  0  0  0  0  0  0  0  0  0
   19.0916   71.4337   -7.7360 C   0  0  1  0  0  0  0  0  0  0  0  0
   16.9585   70.4849   -7.9813 C   0  0  2  0  0  0  0  0  0  0  0  0
   17.8779   72.6981  -10.4649 H   0  0  0  0  0  0  0  0  0  0  0  0
   15.8060   73.3400   -9.1101 H   0  0  0  0  0  0  0  0  0  0  0  0
   14.1499   70.3530   -8.2471 O   0  0  0  0  0  0  0  0  0  0  0  0
   13.6665   68.3974   -4.1015 O   0  0  0  0  0  0  0  0  0  0  0  0
   16.0745   69.9461   -6.9867 N   0  0  0  0  0  0  0  0  0  0  0  0
   13.9117   69.3800   -6.1817 N   0  0  0  0  0  0  0  0  0  0  0  0
   14.6789   69.9268   -7.2188 C   0  0  0  0  0  0  0  0  0  0  0  0
   16.5912   69.4430   -5.7989 C   0  0  0  0  0  0  0  0  0  0  0  0
   15.8474   68.9249   -4.8197 C   0  0  0  0  0  0  0  0  0  0  0  0
   14.3798   68.8680   -4.9824 C   0  0  0  0  0  0  0  0  0  0  0  0
   12.9371   69.3577   -6.3195 H   0  0  0  0  0  0  0  0  0  0  0  0
   20.6868   72.3280   -3.9925 O   0  0  0  0  0  0  0  0  0  0  0  0
   20.4889   72.4637   -2.3937 P   0  0  2  0  0  0  0  0  0  0  0  0
   20.8883   70.9939   -1.8455 O   0  0  0  0  0  0  0  0  0  0  0  0
   19.1226   72.9280   -1.9796 O   0  0  0  0  0  0  0  0  0  0  0  0
   21.6955   73.4198   -1.9117 O   0  0  0  0  0  0  0  0  0  0  0  0
   21.2237   74.5722    0.1029 O   0  0  0  0  0  0  0  0  0  0  0  0
   24.7742   76.3344   -1.0619 O   0  0  0  0  0  0  0  0  0  0  0  0
   22.6884   75.7665   -3.0268 O   0  0  0  0  0  0  0  0  0  0  0  0
   24.7496   74.3930    1.1018 O   0  0  0  0  0  0  0  0  0  0  0  0
   23.8230   75.2770   -0.9390 C   0  0  2  0  0  0  0  0  0  0  0  0
   22.5146   75.6844   -1.6170 C   0  0  2  0  0  0  0  0  0  0  0  0
   23.5922   75.0194    0.5518 C   0  0  1  0  0  0  0  0  0  0  0  0
   21.4033   74.6796   -1.3098 C   0  0  1  0  0  0  0  0  0  0  0  0
   22.3896   74.1083    0.7800 C   0  0  1  0  0  0  0  0  0  0  0  0
   24.9368   76.5158   -2.0010 H   0  0  0  0  0  0  0  0  0  0  0  0
   23.3923   76.4021   -3.2290 H   0  0  0  0  0  0  0  0  0  0  0  0
   25.5223   74.9627    0.9630 H   0  0  0  0  0  0  0  0  0  0  0  0
   20.6771   73.7532    2.3430 O   0  0  0  0  0  0  0  0  0  0  0  0
   22.6975   74.4351    3.1506 O   0  0  0  0  0  0  0  0  0  0  0  0
   21.9741   74.1278    2.2150 C   0  0  0  0  0  0  0  0  0  0  0  0
  1  4  1  0
  1 24  1  0
  1  2  1  1
  1  3  2  0
 25 28  1  0
 25 24  1  0
 25 26  1  1
 25 27  2  0
  6 11  1  0
  6 12  1  0
 29 36  1  0
 29 37  1  0
  9  7  1  6
  7 13  1  0
 10  8  1  6
  8 14  1  0
  4  5  1  0
 36 28  1  1
 33 30  1  1
 30 38  1  0
 34 31  1  6
 31 39  1  0
 35 32  1  6
 32 40  1  0
 41 43  1  0
 15 19  2  0
 42 43  2  0
 16 22  2  0
 12 17  1  1
 17 19  1  0
 17 20  1  0
 18 19  1  0
 18 22  1  0
 18 23  1  0
  9 10  1  0
  9 11  1  0
 10 12  1  0
 11  5  1  1
 33 34  1  0
 33 35  1  0
 34 36  1  0
 35 37  1  0
 37 43  1  1
 20 21  2  0
 21 22  1  0
M  CHG  3   2  -1  26  -1  41  -1
M  END
>  <COMPND>  (178) 
    udp_gluA.pdb 

>  <AUTHOR>  (178) 
    GENERATED BY OPEN BABEL 3.1.1

>  <MASTER>  (178) 
        0    0    0    0    0    0    0    0   56    0   56    0

>  <minimizedAffinity>  (178) 
-6.78084

>  <CNNscore>  (178) 
0.3923634589

>  <CNNaffinity>  (178) 
4.1918649673

>  <CNN_VS>  (178) 
1.6447346210

>  <CNNaffinity_variance>  (178) 
0.0668566003

$$$$
179
     RDKit          3D

 43 45  0  0  0  0  0  0  0  0999 V2000
   18.1459   69.5122   -7.8381 P   0  0  2  0  0  0  0  0  0  0  0  0
   16.8889   70.2034   -8.5872 O   0  0  0  0  0  0  0  0  0  0  0  0
   18.7229   68.3178   -8.5396 O   0  0  0  0  0  0  0  0  0  0  0  0
   17.6070   69.2517   -6.3349 O   0  0  0  0  0  0  0  0  0  0  0  0
   17.0412   70.3362   -5.6220 C   0  0  0  0  0  0  0  0  0  0  0  0
   18.4339   69.9753   -3.6965 O   0  0  0  0  0  0  0  0  0  0  0  0
   15.9721   70.4638   -2.0557 O   0  0  0  0  0  0  0  0  0  0  0  0
   17.2860   72.8470   -1.8828 O   0  0  0  0  0  0  0  0  0  0  0  0
   16.3783   71.0760   -3.2799 C   0  0  1  0  0  0  0  0  0  0  0  0
   17.5086   72.0515   -3.0283 C   0  0  2  0  0  0  0  0  0  0  0  0
   17.0581   70.0140   -4.1333 C   0  0  1  0  0  0  0  0  0  0  0  0
   18.6992   71.1210   -2.8717 C   0  0  2  0  0  0  0  0  0  0  0  0
   15.5351   71.1231   -1.4935 H   0  0  0  0  0  0  0  0  0  0  0  0
   16.5183   73.4216   -2.0323 H   0  0  0  0  0  0  0  0  0  0  0  0
   21.1948   70.7215   -1.6113 O   0  0  0  0  0  0  0  0  0  0  0  0
   23.3501   73.5009   -4.5902 O   0  0  0  0  0  0  0  0  0  0  0  0
   19.9286   71.7280   -3.2972 N   0  0  0  0  0  0  0  0  0  0  0  0
   22.2657   72.1070   -3.0956 N   0  0  0  0  0  0  0  0  0  0  0  0
   21.1275   71.4616   -2.5945 C   0  0  0  0  0  0  0  0  0  0  0  0
   19.9393   72.5745   -4.3991 C   0  0  0  0  0  0  0  0  0  0  0  0
   21.0321   73.1823   -4.8650 C   0  0  0  0  0  0  0  0  0  0  0  0
   22.3259   72.9578   -4.1873 C   0  0  0  0  0  0  0  0  0  0  0  0
   23.1120   71.9385   -2.6215 H   0  0  0  0  0  0  0  0  0  0  0  0
   19.1759   70.7432   -7.6466 O   0  0  0  0  0  0  0  0  0  0  0  0
   19.4089   72.0790   -8.5270 P   0  0  2  0  0  0  0  0  0  0  0  0
   19.2084   71.5597  -10.0471 O   0  0  0  0  0  0  0  0  0  0  0  0
   20.7222   72.7614   -8.2749 O   0  0  0  0  0  0  0  0  0  0  0  0
   18.1124   72.9933   -8.2347 O   0  0  0  0  0  0  0  0  0  0  0  0
   16.3450   73.7413   -9.6225 O   0  0  0  0  0  0  0  0  0  0  0  0
   16.8807   76.9855   -7.1213 O   0  0  0  0  0  0  0  0  0  0  0  0
   19.1856   75.5591   -8.2108 O   0  0  0  0  0  0  0  0  0  0  0  0
   14.6164   75.2037   -6.7353 O   0  0  0  0  0  0  0  0  0  0  0  0
   16.8727   75.6037   -7.4797 C   0  0  2  0  0  0  0  0  0  0  0  0
   17.8419   75.3701   -8.6389 C   0  0  2  0  0  0  0  0  0  0  0  0
   15.4475   75.2309   -7.8942 C   0  0  1  0  0  0  0  0  0  0  0  0
   17.6923   73.9555   -9.2004 C   0  0  1  0  0  0  0  0  0  0  0  0
   15.4018   73.8584   -8.5595 C   0  0  1  0  0  0  0  0  0  0  0  0
   17.7765   77.2453   -6.8542 H   0  0  0  0  0  0  0  0  0  0  0  0
   19.2876   76.4546   -7.8530 H   0  0  0  0  0  0  0  0  0  0  0  0
   14.6368   76.0714   -6.3023 H   0  0  0  0  0  0  0  0  0  0  0  0
   14.1813   73.9804  -10.5588 O   0  0  0  0  0  0  0  0  0  0  0  0
   13.0783   73.2263   -8.7111 O   0  0  0  0  0  0  0  0  0  0  0  0
   14.0928   73.6458   -9.2476 C   0  0  0  0  0  0  0  0  0  0  0  0
  1  4  1  0
  1 24  1  0
  1  2  1  6
  1  3  2  0
 25 28  1  0
 25 24  1  0
 25 26  1  6
 25 27  2  0
  6 11  1  0
  6 12  1  0
 29 36  1  0
 29 37  1  0
  9  7  1  1
  7 13  1  0
 10  8  1  1
  8 14  1  0
  4  5  1  0
 36 28  1  1
 33 30  1  6
 30 38  1  0
 34 31  1  1
 31 39  1  0
 35 32  1  1
 32 40  1  0
 41 43  1  0
 15 19  2  0
 42 43  2  0
 16 22  2  0
 12 17  1  6
 17 19  1  0
 17 20  1  0
 18 19  1  0
 18 22  1  0
 18 23  1  0
  9 10  1  0
  9 11  1  0
 10 12  1  0
 11  5  1  6
 33 34  1  0
 33 35  1  0
 34 36  1  0
 35 37  1  0
 37 43  1  6
 20 21  2  0
 21 22  1  0
M  CHG  3   2  -1  26  -1  41  -1
M  END
>  <COMPND>  (179) 
    udp_gluA.pdb 

>  <AUTHOR>  (179) 
    GENERATED BY OPEN BABEL 3.1.1

>  <MASTER>  (179) 
        0    0    0    0    0    0    0    0   56    0   56    0

>  <minimizedAffinity>  (179) 
-6.93105

>  <CNNscore>  (179) 
0.3918968439

>  <CNNaffinity>  (179) 
4.0550775528

>  <CNN_VS>  (179) 
1.5891721249

>  <CNNaffinity_variance>  (179) 
0.2501082718

$$$$
180
     RDKit          3D

 43 45  0  0  0  0  0  0  0  0999 V2000
   19.2364   75.2796   -6.7708 P   0  0  2  0  0  0  0  0  0  0  0  0
   18.2453   75.7555   -5.5833 O   0  0  0  0  0  0  0  0  0  0  0  0
   19.2420   76.1632   -7.9836 O   0  0  0  0  0  0  0  0  0  0  0  0
   18.8223   73.7367   -7.0275 O   0  0  0  0  0  0  0  0  0  0  0  0
   18.3542   73.3669   -8.3116 C   0  0  0  0  0  0  0  0  0  0  0  0
   18.9352   71.1356   -7.6324 O   0  0  0  0  0  0  0  0  0  0  0  0
   19.3123   70.5459  -10.5482 O   0  0  0  0  0  0  0  0  0  0  0  0
   16.8557   69.4781  -10.0372 O   0  0  0  0  0  0  0  0  0  0  0  0
   18.3518   71.3909   -9.9139 C   0  0  1  0  0  0  0  0  0  0  0  0
   17.2877   70.5561   -9.2335 C   0  0  2  0  0  0  0  0  0  0  0  0
   19.0304   72.0680   -8.7310 C   0  0  1  0  0  0  0  0  0  0  0  0
   18.0039   70.0970   -7.9749 C   0  0  2  0  0  0  0  0  0  0  0  0
   18.9018   70.1023  -11.3073 H   0  0  0  0  0  0  0  0  0  0  0  0
   16.4059   69.8224  -10.8253 H   0  0  0  0  0  0  0  0  0  0  0  0
   18.8151   69.4424   -5.3500 O   0  0  0  0  0  0  0  0  0  0  0  0
   14.4636   69.3472   -3.8334 O   0  0  0  0  0  0  0  0  0  0  0  0
   17.1038   69.8954   -6.8748 N   0  0  0  0  0  0  0  0  0  0  0  0
   16.6470   69.3946   -4.5974 N   0  0  0  0  0  0  0  0  0  0  0  0
   17.6141   69.5696   -5.5959 C   0  0  0  0  0  0  0  0  0  0  0  0
   15.7336   70.0224   -7.0676 C   0  0  0  0  0  0  0  0  0  0  0  0
   14.8240   69.8527   -6.1060 C   0  0  0  0  0  0  0  0  0  0  0  0
   15.2737   69.5096   -4.7409 C   0  0  0  0  0  0  0  0  0  0  0  0
   16.9780   69.1652   -3.6990 H   0  0  0  0  0  0  0  0  0  0  0  0
   20.6640   75.1531   -6.0232 O   0  0  0  0  0  0  0  0  0  0  0  0
   21.7243   73.9344   -5.9593 P   0  0  2  0  0  0  0  0  0  0  0  0
   23.0044   74.5962   -5.2220 O   0  0  0  0  0  0  0  0  0  0  0  0
   22.0305   73.3139   -7.2916 O   0  0  0  0  0  0  0  0  0  0  0  0
   21.1101   72.9142   -4.8710 O   0  0  0  0  0  0  0  0  0  0  0  0
   19.5889   73.3611   -3.1116 O   0  0  0  0  0  0  0  0  0  0  0  0
   21.7895   70.2345   -1.5464 O   0  0  0  0  0  0  0  0  0  0  0  0
   23.1116   72.3877   -3.0128 O   0  0  0  0  0  0  0  0  0  0  0  0
   19.0983   69.7698   -2.5426 O   0  0  0  0  0  0  0  0  0  0  0  0
   21.1676   71.0033   -2.5760 C   0  0  2  0  0  0  0  0  0  0  0  0
   21.7545   72.4150   -2.5859 C   0  0  2  0  0  0  0  0  0  0  0  0
   19.6656   71.0533   -2.2873 C   0  0  1  0  0  0  0  0  0  0  0  0
   20.9584   73.3320   -3.5155 C   0  0  1  0  0  0  0  0  0  0  0  0
   18.9627   72.0814   -3.1691 C   0  0  1  0  0  0  0  0  0  0  0  0
   22.7449   70.1890   -1.7088 H   0  0  0  0  0  0  0  0  0  0  0  0
   23.6226   71.8074   -2.4274 H   0  0  0  0  0  0  0  0  0  0  0  0
   19.5370   69.1061   -1.9877 H   0  0  0  0  0  0  0  0  0  0  0  0
   17.3691   73.6950   -2.5706 O   0  0  0  0  0  0  0  0  0  0  0  0
   16.7578   71.5070   -2.3754 O   0  0  0  0  0  0  0  0  0  0  0  0
   17.5843   72.3594   -2.6642 C   0  0  0  0  0  0  0  0  0  0  0  0
  1  4  1  0
  1 24  1  0
  1  2  1  1
  1  3  2  0
 25 28  1  0
 25 24  1  0
 25 26  1  1
 25 27  2  0
  6 11  1  0
  6 12  1  0
 29 36  1  0
 29 37  1  0
  9  7  1  1
  7 13  1  0
 10  8  1  6
  8 14  1  0
  4  5  1  0
 36 28  1  6
 33 30  1  1
 30 38  1  0
 34 31  1  6
 31 39  1  0
 35 32  1  6
 32 40  1  0
 41 43  1  0
 15 19  2  0
 42 43  2  0
 16 22  2  0
 12 17  1  1
 17 19  1  0
 17 20  1  0
 18 19  1  0
 18 22  1  0
 18 23  1  0
  9 10  1  0
  9 11  1  0
 10 12  1  0
 11  5  1  1
 33 34  1  0
 33 35  1  0
 34 36  1  0
 35 37  1  0
 37 43  1  1
 20 21  2  0
 21 22  1  0
M  CHG  3   2  -1  26  -1  41  -1
M  END
