1
     RDKit          3D

 43 45  0  0  0  0  0  0  0  0999 V2000
   18.8437   73.7422   -7.7865 P   0  0  2  0  0  0  0  0  0  0  0  0
   17.3609   73.4734   -7.1978 O   0  0  0  0  0  0  0  0  0  0  0  0
   19.1163   75.1603   -8.1940 O   0  0  0  0  0  0  0  0  0  0  0  0
   19.0056   72.6324   -8.9528 O   0  0  0  0  0  0  0  0  0  0  0  0
   19.7553   71.4629   -8.6738 C   0  0  0  0  0  0  0  0  0  0  0  0
   18.8060   69.3426   -8.0596 O   0  0  0  0  0  0  0  0  0  0  0  0
   17.1721   69.5599  -10.5643 O   0  0  0  0  0  0  0  0  0  0  0  0
   15.3974   70.3008   -8.6309 O   0  0  0  0  0  0  0  0  0  0  0  0
   17.5807   70.5865   -9.6619 C   0  0  1  0  0  0  0  0  0  0  0  0
   16.7721   70.5152   -8.3834 C   0  0  2  0  0  0  0  0  0  0  0  0
   18.9828   70.2485   -9.1706 C   0  0  1  0  0  0  0  0  0  0  0  0
   17.4251   69.3484   -7.6621 C   0  0  2  0  0  0  0  0  0  0  0  0
   16.2793   69.7541  -10.8918 H   0  0  0  0  0  0  0  0  0  0  0  0
   15.0278   71.0704   -9.0910 H   0  0  0  0  0  0  0  0  0  0  0  0
   15.1503   68.7034   -6.1171 O   0  0  0  0  0  0  0  0  0  0  0  0
   17.2563   69.8825   -2.1908 O   0  0  0  0  0  0  0  0  0  0  0  0
   17.3515   69.4768   -6.2340 N   0  0  0  0  0  0  0  0  0  0  0  0
   16.2009   69.2908   -4.1633 N   0  0  0  0  0  0  0  0  0  0  0  0
   16.1619   69.1267   -5.5539 C   0  0  0  0  0  0  0  0  0  0  0  0
   18.4510   69.9450   -5.5228 C   0  0  0  0  0  0  0  0  0  0  0  0
   18.4715   70.0970   -4.1970 C   0  0  0  0  0  0  0  0  0  0  0  0
   17.2688   69.7537   -3.4111 C   0  0  0  0  0  0  0  0  0  0  0  0
   15.3832   69.0536   -3.6684 H   0  0  0  0  0  0  0  0  0  0  0  0
   19.8068   73.1817   -6.6155 O   0  0  0  0  0  0  0  0  0  0  0  0
   21.1948   73.7550   -6.0174 P   0  0  2  0  0  0  0  0  0  0  0  0
   20.8572   75.3092   -5.7208 O   0  0  0  0  0  0  0  0  0  0  0  0
   22.3843   73.5386   -6.9074 O   0  0  0  0  0  0  0  0  0  0  0  0
   21.3204   73.0792   -4.5571 O   0  0  0  0  0  0  0  0  0  0  0  0
   23.3960   73.9466   -3.8111 O   0  0  0  0  0  0  0  0  0  0  0  0
   22.2135   72.0075   -0.3625 O   0  0  0  0  0  0  0  0  0  0  0  0
   22.1552   74.8770   -0.4670 O   0  0  0  0  0  0  0  0  0  0  0  0
   21.6855   70.8113   -2.9451 O   0  0  0  0  0  0  0  0  0  0  0  0
   22.0248   72.7567   -1.5661 C   0  0  1  0  0  0  0  0  0  0  0  0
   22.8050   74.0670   -1.4426 C   0  0  1  0  0  0  0  0  0  0  0  0
   22.5351   71.9367   -2.7496 C   0  0  2  0  0  0  0  0  0  0  0  0
   22.8711   74.8013   -2.7886 C   0  0  1  0  0  0  0  0  0  0  0  0
   22.6080   72.7743   -4.0276 C   0  0  1  0  0  0  0  0  0  0  0  0
   21.8911   72.5224    0.3928 H   0  0  0  0  0  0  0  0  0  0  0  0
   22.1196   74.4016    0.3780 H   0  0  0  0  0  0  0  0  0  0  0  0
   21.6479   70.2890   -2.1292 H   0  0  0  0  0  0  0  0  0  0  0  0
   24.4895   76.0005   -1.5036 O   0  0  0  0  0  0  0  0  0  0  0  0
   23.7761   76.0298   -2.7260 C   0  0  0  0  0  0  0  0  0  0  0  0
   25.0700   76.7764   -1.4500 H   0  0  0  0  0  0  0  0  0  0  0  0
 25 28  1  0
 25 24  1  0
 25 26  1  1
 25 27  2  0
  1  4  1  0
  1 24  1  0
  1  2  1  1
  1  3  2  0
  6 11  1  0
  6 12  1  0
 29 36  1  0
 29 37  1  0
  9  7  1  6
  7 13  1  0
 10  8  1  6
  8 14  1  0
 37 28  1  1
  4  5  1  0
 33 30  1  1
 30 38  1  0
 34 31  1  1
 31 39  1  0
 35 32  1  6
 32 40  1  0
 41 42  1  0
 41 43  1  0
 15 19  2  0
 16 22  2  0
 12 17  1  1
 17 19  1  0
 17 20  1  0
 18 19  1  0
 18 22  1  0
 18 23  1  0
  9 10  1  0
  9 11  1  0
 10 12  1  0
 11  5  1  1
 33 34  1  0
 33 35  1  0
 34 36  1  0
 35 37  1  0
 36 42  1  1
 20 21  2  0
 21 22  1  0
M  CHG  2   2  -1  26  -1
M  END
>  <COMPND>  (1) 
    8629 

>  <AUTHOR>  (1) 
    GENERATED BY OPEN BABEL 3.1.1

>  <MASTER>  (1) 
        0    0    0    0    0    0    0    0   58    0   58    0

>  <minimizedAffinity>  (1) 
-8.07143

>  <CNNscore>  (1) 
0.7596772909

>  <CNNaffinity>  (1) 
4.6194944382

>  <CNN_VS>  (1) 
3.5093250275

>  <CNNaffinity_variance>  (1) 
0.3663641810

$$$$
2
     RDKit          3D

 43 45  0  0  0  0  0  0  0  0999 V2000
   19.1416   73.7843   -7.8184 P   0  0  2  0  0  0  0  0  0  0  0  0
   18.2286   73.1756   -6.6295 O   0  0  0  0  0  0  0  0  0  0  0  0
   18.7205   75.1376   -8.3112 O   0  0  0  0  0  0  0  0  0  0  0  0
   19.1669   72.6085   -8.9295 O   0  0  0  0  0  0  0  0  0  0  0  0
   19.8441   71.4023   -8.6221 C   0  0  0  0  0  0  0  0  0  0  0  0
   18.8010   69.3135   -8.0541 O   0  0  0  0  0  0  0  0  0  0  0  0
   17.2109   69.6363  -10.5757 O   0  0  0  0  0  0  0  0  0  0  0  0
   15.4423   70.4194   -8.6534 O   0  0  0  0  0  0  0  0  0  0  0  0
   17.6490   70.6312   -9.6518 C   0  0  1  0  0  0  0  0  0  0  0  0
   16.8210   70.5733   -8.3850 C   0  0  2  0  0  0  0  0  0  0  0  0
   19.0295   70.2285   -9.1482 C   0  0  1  0  0  0  0  0  0  0  0  0
   17.4163   69.3697   -7.6742 C   0  0  2  0  0  0  0  0  0  0  0  0
   16.3313   69.8719  -10.9113 H   0  0  0  0  0  0  0  0  0  0  0  0
   15.1105   71.2105   -9.1059 H   0  0  0  0  0  0  0  0  0  0  0  0
   15.0577   68.9357   -6.1820 O   0  0  0  0  0  0  0  0  0  0  0  0
   17.1982   69.8184   -2.1970 O   0  0  0  0  0  0  0  0  0  0  0  0
   17.3288   69.4790   -6.2453 N   0  0  0  0  0  0  0  0  0  0  0  0
   16.1255   69.3754   -4.1990 N   0  0  0  0  0  0  0  0  0  0  0  0
   16.0965   69.2416   -5.5930 C   0  0  0  0  0  0  0  0  0  0  0  0
   18.4568   69.8178   -5.5059 C   0  0  0  0  0  0  0  0  0  0  0  0
   18.4674   69.9426   -4.1771 C   0  0  0  0  0  0  0  0  0  0  0  0
   17.2208   69.7114   -3.4192 C   0  0  0  0  0  0  0  0  0  0  0  0
   15.2783   69.2151   -3.7231 H   0  0  0  0  0  0  0  0  0  0  0  0
   20.6326   73.7288   -7.1965 O   0  0  0  0  0  0  0  0  0  0  0  0
   21.4827   74.8326   -6.3768 P   0  0  2  0  0  0  0  0  0  0  0  0
   20.3842   75.9716   -6.0398 O   0  0  0  0  0  0  0  0  0  0  0  0
   22.6962   75.3378   -7.1021 O   0  0  0  0  0  0  0  0  0  0  0  0
   21.7953   74.1346   -4.9555 O   0  0  0  0  0  0  0  0  0  0  0  0
   20.7486   72.3869   -3.7446 O   0  0  0  0  0  0  0  0  0  0  0  0
   21.5486   74.9666   -0.6211 O   0  0  0  0  0  0  0  0  0  0  0  0
   23.0789   72.5515   -0.8930 O   0  0  0  0  0  0  0  0  0  0  0  0
   20.7067   76.0185   -3.1832 O   0  0  0  0  0  0  0  0  0  0  0  0
   21.7966   74.3178   -1.8713 C   0  0  1  0  0  0  0  0  0  0  0  0
   21.8817   72.8108   -1.6209 C   0  0  1  0  0  0  0  0  0  0  0  0
   20.6560   74.6390   -2.8353 C   0  0  2  0  0  0  0  0  0  0  0  0
   21.8793   72.0289   -2.9414 C   0  0  1  0  0  0  0  0  0  0  0  0
   20.7193   73.7721   -4.0941 C   0  0  1  0  0  0  0  0  0  0  0  0
   22.2694   74.7670   -0.0046 H   0  0  0  0  0  0  0  0  0  0  0  0
   23.0680   73.0516   -0.0617 H   0  0  0  0  0  0  0  0  0  0  0  0
   20.6656   76.5567   -2.3779 H   0  0  0  0  0  0  0  0  0  0  0  0
   21.7258   70.2807   -1.3199 O   0  0  0  0  0  0  0  0  0  0  0  0
   21.8047   70.5208   -2.7129 C   0  0  0  0  0  0  0  0  0  0  0  0
   21.6773   69.3249   -1.1594 H   0  0  0  0  0  0  0  0  0  0  0  0
 25 28  1  0
 25 24  1  0
 25 26  1  1
 25 27  2  0
  1  4  1  0
  1 24  1  0
  1  2  1  1
  1  3  2  0
  6 11  1  0
  6 12  1  0
 29 36  1  0
 29 37  1  0
  9  7  1  6
  7 13  1  0
 10  8  1  6
  8 14  1  0
 37 28  1  1
  4  5  1  0
 33 30  1  1
 30 38  1  0
 34 31  1  6
 31 39  1  0
 35 32  1  6
 32 40  1  0
 41 42  1  0
 41 43  1  0
 15 19  2  0
 16 22  2  0
 12 17  1  1
 17 19  1  0
 17 20  1  0
 18 19  1  0
 18 22  1  0
 18 23  1  0
  9 10  1  0
  9 11  1  0
 10 12  1  0
 11  5  1  1
 33 34  1  0
 33 35  1  0
 34 36  1  0
 35 37  1  0
 36 42  1  1
 20 21  2  0
 21 22  1  0
M  CHG  2   2  -1  26  -1
M  END
>  <COMPND>  (2) 
    8629 

>  <AUTHOR>  (2) 
    GENERATED BY OPEN BABEL 3.1.1

>  <MASTER>  (2) 
        0    0    0    0    0    0    0    0   58    0   58    0

>  <minimizedAffinity>  (2) 
-7.95854

>  <CNNscore>  (2) 
0.7506529689

>  <CNNaffinity>  (2) 
4.5153951645

>  <CNN_VS>  (2) 
3.3894948959

>  <CNNaffinity_variance>  (2) 
0.6585272551

$$$$
3
     RDKit          3D

 43 45  0  0  0  0  0  0  0  0999 V2000
   21.0972   71.2737   -1.9525 P   0  0  2  0  0  0  0  0  0  0  0  0
   22.1729   70.2761   -1.2705 O   0  0  0  0  0  0  0  0  0  0  0  0
   20.5355   72.3215   -1.0371 O   0  0  0  0  0  0  0  0  0  0  0  0
   20.0158   70.2767   -2.6266 O   0  0  0  0  0  0  0  0  0  0  0  0
   19.4380   70.6448   -3.8670 C   0  0  0  0  0  0  0  0  0  0  0  0
   17.4327   71.4852   -4.8898 O   0  0  0  0  0  0  0  0  0  0  0  0
   15.9558   70.1739   -2.6336 O   0  0  0  0  0  0  0  0  0  0  0  0
   15.6087   68.4044   -4.6793 O   0  0  0  0  0  0  0  0  0  0  0  0
   17.1254   69.7346   -3.3224 C   0  0  1  0  0  0  0  0  0  0  0  0
   16.7625   69.2200   -4.6997 C   0  0  2  0  0  0  0  0  0  0  0  0
   17.9646   70.9627   -3.6526 C   0  0  1  0  0  0  0  0  0  0  0  0
   16.5525   70.5107   -5.4731 C   0  0  2  0  0  0  0  0  0  0  0  0
   15.4041   69.4069   -2.4118 H   0  0  0  0  0  0  0  0  0  0  0  0
   15.7928   67.5961   -4.1758 H   0  0  0  0  0  0  0  0  0  0  0  0
   14.6318   70.3844   -7.5402 O   0  0  0  0  0  0  0  0  0  0  0  0
   17.8808   69.9755  -10.7833 O   0  0  0  0  0  0  0  0  0  0  0  0
   16.8686   70.3717   -6.8667 N   0  0  0  0  0  0  0  0  0  0  0  0
   16.2511   70.1811   -9.1533 N   0  0  0  0  0  0  0  0  0  0  0  0
   15.8294   70.3172   -7.8246 C   0  0  0  0  0  0  0  0  0  0  0  0
   18.1966   70.2914   -7.2714 C   0  0  0  0  0  0  0  0  0  0  0  0
   18.5821   70.1605   -8.5424 C   0  0  0  0  0  0  0  0  0  0  0  0
   17.5584   70.0958   -9.6054 C   0  0  0  0  0  0  0  0  0  0  0  0
   15.5445   70.1405   -9.8380 H   0  0  0  0  0  0  0  0  0  0  0  0
   21.8999   71.8558   -3.2291 O   0  0  0  0  0  0  0  0  0  0  0  0
   22.3218   73.3668   -3.6189 P   0  0  2  0  0  0  0  0  0  0  0  0
   20.8987   74.1174   -3.7884 O   0  0  0  0  0  0  0  0  0  0  0  0
   23.2204   73.4649   -4.8176 O   0  0  0  0  0  0  0  0  0  0  0  0
   22.9467   73.9792   -2.2627 O   0  0  0  0  0  0  0  0  0  0  0  0
   21.6982   75.3872   -0.8220 O   0  0  0  0  0  0  0  0  0  0  0  0
   25.5069   76.6267    0.1820 O   0  0  0  0  0  0  0  0  0  0  0  0
   24.0028   75.0260    2.0323 O   0  0  0  0  0  0  0  0  0  0  0  0
   24.8721   75.9973   -2.5713 O   0  0  0  0  0  0  0  0  0  0  0  0
   24.5042   75.6858   -0.2114 C   0  0  1  0  0  0  0  0  0  0  0  0
   23.4333   75.6417    0.8804 C   0  0  1  0  0  0  0  0  0  0  0  0
   23.8981   76.1292   -1.5415 C   0  0  2  0  0  0  0  0  0  0  0  0
   22.1976   74.8609    0.4130 C   0  0  1  0  0  0  0  0  0  0  0  0
   22.6464   75.3214   -1.8891 C   0  0  1  0  0  0  0  0  0  0  0  0
   25.8962   76.3507    1.0257 H   0  0  0  0  0  0  0  0  0  0  0  0
   24.7824   75.5285    2.3169 H   0  0  0  0  0  0  0  0  0  0  0  0
   25.6593   76.5135   -2.3396 H   0  0  0  0  0  0  0  0  0  0  0  0
   21.2252   73.8998    2.3725 O   0  0  0  0  0  0  0  0  0  0  0  0
   21.0562   74.9377    1.4246 C   0  0  0  0  0  0  0  0  0  0  0  0
   20.5060   73.9365    3.0230 H   0  0  0  0  0  0  0  0  0  0  0  0
 25 28  1  0
 25 24  1  0
 25 26  1  6
 25 27  2  0
  1  4  1  0
  1 24  1  0
  1  2  1  1
  1  3  2  0
  6 11  1  0
  6 12  1  0
 29 36  1  0
 29 37  1  0
  9  7  1  1
  7 13  1  0
 10  8  1  1
  8 14  1  0
 37 28  1  1
  4  5  1  0
 33 30  1  1
 30 38  1  0
 34 31  1  1
 31 39  1  0
 35 32  1  6
 32 40  1  0
 41 42  1  0
 41 43  1  0
 15 19  2  0
 16 22  2  0
 12 17  1  6
 17 19  1  0
 17 20  1  0
 18 19  1  0
 18 22  1  0
 18 23  1  0
  9 10  1  0
  9 11  1  0
 10 12  1  0
 11  5  1  6
 33 34  1  0
 33 35  1  0
 34 36  1  0
 35 37  1  0
 36 42  1  1
 20 21  2  0
 21 22  1  0
M  CHG  2   2  -1  26  -1
M  END
>  <COMPND>  (3) 
    8629 

>  <AUTHOR>  (3) 
    GENERATED BY OPEN BABEL 3.1.1

>  <MASTER>  (3) 
        0    0    0    0    0    0    0    0   58    0   58    0

>  <minimizedAffinity>  (3) 
-7.68945

>  <CNNscore>  (3) 
0.6482396722

>  <CNNaffinity>  (3) 
4.5143346786

>  <CNN_VS>  (3) 
2.9263708591

>  <CNNaffinity_variance>  (3) 
0.1370429099

$$$$
4
     RDKit          3D

 43 45  0  0  0  0  0  0  0  0999 V2000
   19.8952   70.4485   -3.0063 P   0  0  2  0  0  0  0  0  0  0  0  0
   19.6212   70.8492   -4.5496 O   0  0  0  0  0  0  0  0  0  0  0  0
   21.1315   69.6307   -2.7738 O   0  0  0  0  0  0  0  0  0  0  0  0
   18.5053   69.7723   -2.5279 O   0  0  0  0  0  0  0  0  0  0  0  0
   17.6184   69.2782   -3.5164 C   0  0  0  0  0  0  0  0  0  0  0  0
   16.5570   71.0078   -4.8031 O   0  0  0  0  0  0  0  0  0  0  0  0
   14.0503   70.3238   -3.3066 O   0  0  0  0  0  0  0  0  0  0  0  0
   13.6764   69.0677   -5.6980 O   0  0  0  0  0  0  0  0  0  0  0  0
   15.0928   69.4627   -3.7617 C   0  0  1  0  0  0  0  0  0  0  0  0
   15.0041   69.2774   -5.2622 C   0  0  2  0  0  0  0  0  0  0  0  0
   16.4145   70.2054   -3.6105 C   0  0  1  0  0  0  0  0  0  0  0  0
   15.5890   70.5820   -5.7759 C   0  0  2  0  0  0  0  0  0  0  0  0
   13.1962   69.8711   -3.3932 H   0  0  0  0  0  0  0  0  0  0  0  0
   13.3493   68.2255   -5.3452 H   0  0  0  0  0  0  0  0  0  0  0  0
   14.3106   70.8971   -8.2748 O   0  0  0  0  0  0  0  0  0  0  0  0
   18.1891   69.9635  -10.5828 O   0  0  0  0  0  0  0  0  0  0  0  0
   16.2409   70.4275   -7.0458 N   0  0  0  0  0  0  0  0  0  0  0  0
   16.2429   70.4322   -9.4220 N   0  0  0  0  0  0  0  0  0  0  0  0
   15.5082   70.6065   -8.2422 C   0  0  0  0  0  0  0  0  0  0  0  0
   17.5921   70.1023   -7.0961 C   0  0  0  0  0  0  0  0  0  0  0  0
   18.2778   69.9384   -8.2293 C   0  0  0  0  0  0  0  0  0  0  0  0
   17.5864   70.1076   -9.5236 C   0  0  0  0  0  0  0  0  0  0  0  0
   15.7531   70.5515  -10.2679 H   0  0  0  0  0  0  0  0  0  0  0  0
   19.8824   71.8780   -2.2518 O   0  0  0  0  0  0  0  0  0  0  0  0
   20.8615   73.1573   -2.3848 P   0  0  2  0  0  0  0  0  0  0  0  0
   22.3306   72.5278   -2.1338 O   0  0  0  0  0  0  0  0  0  0  0  0
   20.5121   74.2971   -1.4724 O   0  0  0  0  0  0  0  0  0  0  0  0
   20.8395   73.5270   -3.9557 O   0  0  0  0  0  0  0  0  0  0  0  0
   20.8790   75.4710   -5.3107 O   0  0  0  0  0  0  0  0  0  0  0  0
   17.6397   73.5512   -7.0055 O   0  0  0  0  0  0  0  0  0  0  0  0
   20.1236   73.6777   -8.4415 O   0  0  0  0  0  0  0  0  0  0  0  0
   18.0403   73.4517   -4.1403 O   0  0  0  0  0  0  0  0  0  0  0  0
   18.9205   73.6358   -6.3748 C   0  0  1  0  0  0  0  0  0  0  0  0
   19.8469   74.4523   -7.2781 C   0  0  1  0  0  0  0  0  0  0  0  0
   18.7632   74.3121   -5.0142 C   0  0  2  0  0  0  0  0  0  0  0  0
   21.1508   74.8126   -6.5534 C   0  0  1  0  0  0  0  0  0  0  0  0
   20.1182   74.6723   -4.4024 C   0  0  1  0  0  0  0  0  0  0  0  0
   17.7325   73.1223   -7.8697 H   0  0  0  0  0  0  0  0  0  0  0  0
   19.2920   73.4564   -8.8895 H   0  0  0  0  0  0  0  0  0  0  0  0
   17.1844   73.2314   -4.5388 H   0  0  0  0  0  0  0  0  0  0  0  0
   22.7305   74.9952   -8.3367 O   0  0  0  0  0  0  0  0  0  0  0  0
   22.0210   75.7583   -7.3783 C   0  0  0  0  0  0  0  0  0  0  0  0
   23.2884   75.5840   -8.8693 H   0  0  0  0  0  0  0  0  0  0  0  0
 25 28  1  0
 25 24  1  0
 25 26  1  1
 25 27  2  0
  1  4  1  0
  1 24  1  0
  1  2  1  6
  1  3  2  0
  6 11  1  0
  6 12  1  0
 29 36  1  0
 29 37  1  0
  9  7  1  6
  7 13  1  0
 10  8  1  1
  8 14  1  0
 37 28  1  6
  4  5  1  0
 33 30  1  6
 30 38  1  0
 34 31  1  6
 31 39  1  0
 35 32  1  1
 32 40  1  0
 41 42  1  0
 41 43  1  0
 15 19  2  0
 16 22  2  0
 12 17  1  6
 17 19  1  0
 17 20  1  0
 18 19  1  0
 18 22  1  0
 18 23  1  0
  9 10  1  0
  9 11  1  0
 10 12  1  0
 11  5  1  6
 33 34  1  0
 33 35  1  0
 34 36  1  0
 35 37  1  0
 36 42  1  6
 20 21  2  0
 21 22  1  0
M  CHG  2   2  -1  26  -1
M  END
>  <COMPND>  (4) 
    8629 

>  <AUTHOR>  (4) 
    GENERATED BY OPEN BABEL 3.1.1

>  <MASTER>  (4) 
        0    0    0    0    0    0    0    0   58    0   58    0

>  <minimizedAffinity>  (4) 
-6.90792

>  <CNNscore>  (4) 
0.5854181647

>  <CNNaffinity>  (4) 
4.1947894096

>  <CNN_VS>  (4) 
2.4557058811

>  <CNNaffinity_variance>  (4) 
0.6080418229

$$$$
5
     RDKit          3D

 43 45  0  0  0  0  0  0  0  0999 V2000
   21.3187   71.8917   -2.6398 P   0  0  2  0  0  0  0  0  0  0  0  0
   21.2042   70.6685   -1.5871 O   0  0  0  0  0  0  0  0  0  0  0  0
   22.6795   72.0841   -3.2421 O   0  0  0  0  0  0  0  0  0  0  0  0
   20.7236   73.1590   -1.8290 O   0  0  0  0  0  0  0  0  0  0  0  0
   21.6273   74.0071   -1.1421 C   0  0  0  0  0  0  0  0  0  0  0  0
   23.2520   73.4762    0.5469 O   0  0  0  0  0  0  0  0  0  0  0  0
   20.9709   73.5281    2.4923 O   0  0  0  0  0  0  0  0  0  0  0  0
   22.1488   75.9549    2.8925 O   0  0  0  0  0  0  0  0  0  0  0  0
   21.1949   74.3426    1.3426 C   0  0  1  0  0  0  0  0  0  0  0  0
   22.2861   75.3554    1.6202 C   0  0  2  0  0  0  0  0  0  0  0  0
   21.8347   73.4721    0.2682 C   0  0  1  0  0  0  0  0  0  0  0  0
   23.5406   74.5061    1.5064 C   0  0  2  0  0  0  0  0  0  0  0  0
   20.5624   74.0623    3.1921 H   0  0  0  0  0  0  0  0  0  0  0  0
   21.3363   76.4842    2.9147 H   0  0  0  0  0  0  0  0  0  0  0  0
   25.9368   74.8209    2.9684 O   0  0  0  0  0  0  0  0  0  0  0  0
   27.8225   77.4278   -0.3315 O   0  0  0  0  0  0  0  0  0  0  0  0
   24.6742   75.2616    1.0530 N   0  0  0  0  0  0  0  0  0  0  0  0
   26.8739   76.1185    1.3240 N   0  0  0  0  0  0  0  0  0  0  0  0
   25.8289   75.3580    1.8641 C   0  0  0  0  0  0  0  0  0  0  0  0
   24.6340   75.8966   -0.1836 C   0  0  0  0  0  0  0  0  0  0  0  0
   25.6386   76.6192   -0.6836 C   0  0  0  0  0  0  0  0  0  0  0  0
   26.8812   76.7698    0.1007 C   0  0  0  0  0  0  0  0  0  0  0  0
   27.6883   76.2000    1.8716 H   0  0  0  0  0  0  0  0  0  0  0  0
   20.1508   71.5626   -3.7078 O   0  0  0  0  0  0  0  0  0  0  0  0
   18.9334   70.5004   -3.6559 P   0  0  2  0  0  0  0  0  0  0  0  0
   17.8446   71.2299   -2.7075 O   0  0  0  0  0  0  0  0  0  0  0  0
   19.3334   69.1279   -3.1974 O   0  0  0  0  0  0  0  0  0  0  0  0
   18.2852   70.5495   -5.1332 O   0  0  0  0  0  0  0  0  0  0  0  0
   16.7222   68.7701   -5.0484 O   0  0  0  0  0  0  0  0  0  0  0  0
   15.8086   70.2732   -8.7842 O   0  0  0  0  0  0  0  0  0  0  0  0
   13.9869   70.6906   -6.6036 O   0  0  0  0  0  0  0  0  0  0  0  0
   18.5635   70.1770   -7.9007 O   0  0  0  0  0  0  0  0  0  0  0  0
   16.2106   70.3448   -7.4136 C   0  0  1  0  0  0  0  0  0  0  0  0
   15.0803   69.7784   -6.5521 C   0  0  1  0  0  0  0  0  0  0  0  0
   17.4896   69.5310   -7.2255 C   0  0  2  0  0  0  0  0  0  0  0  0
   15.5382   69.5746   -5.1016 C   0  0  1  0  0  0  0  0  0  0  0  0
   17.8287   69.3461   -5.7453 C   0  0  1  0  0  0  0  0  0  0  0  0
   14.9973   70.7883   -8.9106 H   0  0  0  0  0  0  0  0  0  0  0  0
   13.7077   70.8109   -7.5249 H   0  0  0  0  0  0  0  0  0  0  0  0
   18.3367   70.2879   -8.8367 H   0  0  0  0  0  0  0  0  0  0  0  0
   13.7865   69.8352   -3.4977 O   0  0  0  0  0  0  0  0  0  0  0  0
   14.4785   68.8648   -4.2617 C   0  0  0  0  0  0  0  0  0  0  0  0
   13.1086   69.3979   -2.9583 H   0  0  0  0  0  0  0  0  0  0  0  0
 25 28  1  0
 25 24  1  0
 25 26  1  1
 25 27  2  0
  1  4  1  0
  1 24  1  0
  1  2  1  1
  1  3  2  0
  6 11  1  0
  6 12  1  0
 29 36  1  0
 29 37  1  0
  9  7  1  1
  7 13  1  0
 10  8  1  1
  8 14  1  0
 37 28  1  1
  4  5  1  0
 33 30  1  6
 30 38  1  0
 34 31  1  1
 31 39  1  0
 35 32  1  6
 32 40  1  0
 41 42  1  0
 41 43  1  0
 15 19  2  0
 16 22  2  0
 12 17  1  6
 17 19  1  0
 17 20  1  0
 18 19  1  0
 18 22  1  0
 18 23  1  0
  9 10  1  0
  9 11  1  0
 10 12  1  0
 11  5  1  6
 33 34  1  0
 33 35  1  0
 34 36  1  0
 35 37  1  0
 36 42  1  1
 20 21  2  0
 21 22  1  0
M  CHG  2   2  -1  26  -1
M  END
>  <COMPND>  (5) 
    8629 

>  <AUTHOR>  (5) 
    GENERATED BY OPEN BABEL 3.1.1

>  <MASTER>  (5) 
        0    0    0    0    0    0    0    0   58    0   58    0

>  <minimizedAffinity>  (5) 
-7.28687

>  <CNNscore>  (5) 
0.5201979876

>  <CNNaffinity>  (5) 
4.0352702141

>  <CNN_VS>  (5) 
2.0991394520

>  <CNNaffinity_variance>  (5) 
0.1133627146

$$$$
6
     RDKit          3D

 43 45  0  0  0  0  0  0  0  0999 V2000
   19.6026   73.0970   -2.4091 P   0  0  2  0  0  0  0  0  0  0  0  0
   18.3613   73.7084   -1.5708 O   0  0  0  0  0  0  0  0  0  0  0  0
   19.9395   73.8348   -3.6714 O   0  0  0  0  0  0  0  0  0  0  0  0
   19.2182   71.5356   -2.5891 O   0  0  0  0  0  0  0  0  0  0  0  0
   18.7072   71.1048   -3.8385 C   0  0  0  0  0  0  0  0  0  0  0  0
   16.6836   71.4404   -5.0900 O   0  0  0  0  0  0  0  0  0  0  0  0
   15.2974   69.9446   -2.8918 O   0  0  0  0  0  0  0  0  0  0  0  0
   15.5432   68.0495   -4.8372 O   0  0  0  0  0  0  0  0  0  0  0  0
   16.5973   69.7392   -3.4426 C   0  0  1  0  0  0  0  0  0  0  0  0
   16.4936   69.0949   -4.8092 C   0  0  2  0  0  0  0  0  0  0  0  0
   17.1858   71.1039   -3.7782 C   0  0  1  0  0  0  0  0  0  0  0  0
   16.0940   70.2718   -5.6829 C   0  0  2  0  0  0  0  0  0  0  0  0
   14.9015   69.0869   -2.6692 H   0  0  0  0  0  0  0  0  0  0  0  0
   15.8426   67.3248   -4.2663 H   0  0  0  0  0  0  0  0  0  0  0  0
   14.5482   70.8120   -7.9843 O   0  0  0  0  0  0  0  0  0  0  0  0
   18.0325   69.7332  -10.8016 O   0  0  0  0  0  0  0  0  0  0  0  0
   16.5722   70.1408   -7.0303 N   0  0  0  0  0  0  0  0  0  0  0  0
   16.2844   70.2746   -9.3853 N   0  0  0  0  0  0  0  0  0  0  0  0
   15.7148   70.4360   -8.1158 C   0  0  0  0  0  0  0  0  0  0  0  0
   17.8781   69.7241   -7.2648 C   0  0  0  0  0  0  0  0  0  0  0  0
   18.4056   69.5739   -8.4815 C   0  0  0  0  0  0  0  0  0  0  0  0
   17.5765   69.8618   -9.6697 C   0  0  0  0  0  0  0  0  0  0  0  0
   15.7057   70.4741  -10.1566 H   0  0  0  0  0  0  0  0  0  0  0  0
   20.7932   73.0544   -1.3165 O   0  0  0  0  0  0  0  0  0  0  0  0
   22.1744   72.2153   -1.2838 P   0  0  2  0  0  0  0  0  0  0  0  0
   22.8323   72.5270   -2.7286 O   0  0  0  0  0  0  0  0  0  0  0  0
   21.9999   70.7543   -0.9851 O   0  0  0  0  0  0  0  0  0  0  0  0
   23.1081   73.0063   -0.2314 O   0  0  0  0  0  0  0  0  0  0  0  0
   23.0003   74.2969    1.7533 O   0  0  0  0  0  0  0  0  0  0  0  0
   24.8578   77.0367   -0.7152 O   0  0  0  0  0  0  0  0  0  0  0  0
   26.3668   75.7461    1.3597 O   0  0  0  0  0  0  0  0  0  0  0  0
   22.7677   75.3314   -1.7654 O   0  0  0  0  0  0  0  0  0  0  0  0
   24.5591   75.7339   -0.2065 C   0  0  1  0  0  0  0  0  0  0  0  0
   24.9454   75.6968    1.2735 C   0  0  1  0  0  0  0  0  0  0  0  0
   23.0662   75.4607   -0.3795 C   0  0  2  0  0  0  0  0  0  0  0  0
   24.4125   74.4284    1.9534 C   0  0  1  0  0  0  0  0  0  0  0  0
   22.6307   74.2039    0.3761 C   0  0  1  0  0  0  0  0  0  0  0  0
   25.8043   77.2163   -0.6088 H   0  0  0  0  0  0  0  0  0  0  0  0
   26.6905   76.5514    0.9262 H   0  0  0  0  0  0  0  0  0  0  0  0
   23.0478   76.1334   -2.2325 H   0  0  0  0  0  0  0  0  0  0  0  0
   23.5304   73.8579    4.0995 O   0  0  0  0  0  0  0  0  0  0  0  0
   24.6496   74.4455    3.4620 C   0  0  0  0  0  0  0  0  0  0  0  0
   23.6674   73.8616    5.0601 H   0  0  0  0  0  0  0  0  0  0  0  0
 25 28  1  0
 25 24  1  0
 25 26  1  6
 25 27  2  0
  1  4  1  0
  1 24  1  0
  1  2  1  1
  1  3  2  0
  6 11  1  0
  6 12  1  0
 29 36  1  0
 29 37  1  0
  9  7  1  6
  7 13  1  0
 10  8  1  1
  8 14  1  0
 37 28  1  6
  4  5  1  0
 33 30  1  1
 30 38  1  0
 34 31  1  6
 31 39  1  0
 35 32  1  6
 32 40  1  0
 41 42  1  0
 41 43  1  0
 15 19  2  0
 16 22  2  0
 12 17  1  6
 17 19  1  0
 17 20  1  0
 18 19  1  0
 18 22  1  0
 18 23  1  0
  9 10  1  0
  9 11  1  0
 10 12  1  0
 11  5  1  6
 33 34  1  0
 33 35  1  0
 34 36  1  0
 35 37  1  0
 36 42  1  1
 20 21  2  0
 21 22  1  0
M  CHG  2   2  -1  26  -1
M  END
>  <COMPND>  (6) 
    8629 

>  <AUTHOR>  (6) 
    GENERATED BY OPEN BABEL 3.1.1

>  <MASTER>  (6) 
        0    0    0    0    0    0    0    0   58    0   58    0

>  <minimizedAffinity>  (6) 
-7.59486

>  <CNNscore>  (6) 
0.4983213544

>  <CNNaffinity>  (6) 
4.3140830994

>  <CNN_VS>  (6) 
2.1497998238

>  <CNNaffinity_variance>  (6) 
0.0728044361

$$$$
7
     RDKit          3D

 43 45  0  0  0  0  0  0  0  0999 V2000
   20.8578   73.3393   -6.3583 P   0  0  2  0  0  0  0  0  0  0  0  0
   19.8728   74.6200   -6.4421 O   0  0  0  0  0  0  0  0  0  0  0  0
   22.2128   73.5408   -6.9706 O   0  0  0  0  0  0  0  0  0  0  0  0
   19.9785   72.1316   -6.9797 O   0  0  0  0  0  0  0  0  0  0  0  0
   19.2985   72.3506   -8.2034 C   0  0  0  0  0  0  0  0  0  0  0  0
   18.6490   70.1066   -7.6410 O   0  0  0  0  0  0  0  0  0  0  0  0
   17.3703   69.9971  -10.3510 O   0  0  0  0  0  0  0  0  0  0  0  0
   15.2413   70.4455   -8.7069 O   0  0  0  0  0  0  0  0  0  0  0  0
   17.4665   71.0928   -9.4424 C   0  0  1  0  0  0  0  0  0  0  0  0
   16.5105   70.9005   -8.2837 C   0  0  2  0  0  0  0  0  0  0  0  0
   18.8226   71.0126   -8.7525 C   0  0  1  0  0  0  0  0  0  0  0  0
   17.2455   69.8768   -7.4352 C   0  0  2  0  0  0  0  0  0  0  0  0
   16.5125   70.0273  -10.8039 H   0  0  0  0  0  0  0  0  0  0  0  0
   14.8139   71.1316   -9.2428 H   0  0  0  0  0  0  0  0  0  0  0  0
   14.9820   68.7618   -6.1660 O   0  0  0  0  0  0  0  0  0  0  0  0
   16.2175   70.4610   -2.0639 O   0  0  0  0  0  0  0  0  0  0  0  0
   16.9511   70.0119   -6.0365 N   0  0  0  0  0  0  0  0  0  0  0  0
   15.5991   69.6086   -4.1244 N   0  0  0  0  0  0  0  0  0  0  0  0
   15.7876   69.4140   -5.4987 C   0  0  0  0  0  0  0  0  0  0  0  0
   17.8114   70.7306   -5.2135 C   0  0  0  0  0  0  0  0  0  0  0  0
   17.6167   70.9080   -3.9051 C   0  0  0  0  0  0  0  0  0  0  0  0
   16.4247   70.3157   -3.2646 C   0  0  0  0  0  0  0  0  0  0  0  0
   14.7950   69.2014   -3.7278 H   0  0  0  0  0  0  0  0  0  0  0  0
   20.8775   72.9987   -4.7783 O   0  0  0  0  0  0  0  0  0  0  0  0
   22.1084   72.8263   -3.7448 P   0  0  2  0  0  0  0  0  0  0  0  0
   23.2928   73.6887   -4.4312 O   0  0  0  0  0  0  0  0  0  0  0  0
   22.4711   71.3992   -3.4523 O   0  0  0  0  0  0  0  0  0  0  0  0
   21.6770   73.6859   -2.4486 O   0  0  0  0  0  0  0  0  0  0  0  0
   21.1193   73.0692   -0.2293 O   0  0  0  0  0  0  0  0  0  0  0  0
   18.2874   76.0143   -0.8271 O   0  0  0  0  0  0  0  0  0  0  0  0
   20.5191   76.5242    0.9072 O   0  0  0  0  0  0  0  0  0  0  0  0
   18.9730   74.2110   -2.9852 O   0  0  0  0  0  0  0  0  0  0  0  0
   19.5650   75.3873   -0.9685 C   0  0  1  0  0  0  0  0  0  0  0  0
   20.1777   75.2278    0.4244 C   0  0  1  0  0  0  0  0  0  0  0  0
   19.3814   74.0248   -1.6343 C   0  0  2  0  0  0  0  0  0  0  0  0
   21.4206   74.3285    0.3832 C   0  0  1  0  0  0  0  0  0  0  0  0
   20.6629   73.1913   -1.5779 C   0  0  1  0  0  0  0  0  0  0  0  0
   18.3970   76.8801   -0.4054 H   0  0  0  0  0  0  0  0  0  0  0  0
   19.7257   77.0822    0.9278 H   0  0  0  0  0  0  0  0  0  0  0  0
   18.1608   74.7398   -3.0074 H   0  0  0  0  0  0  0  0  0  0  0  0
   22.6915   75.1501    2.2321 O   0  0  0  0  0  0  0  0  0  0  0  0
   21.9555   74.0278    1.7816 C   0  0  0  0  0  0  0  0  0  0  0  0
   23.0379   74.9732    3.1212 H   0  0  0  0  0  0  0  0  0  0  0  0
 25 28  1  0
 25 24  1  0
 25 26  1  6
 25 27  2  0
  1  4  1  0
  1 24  1  0
  1  2  1  1
  1  3  2  0
  6 11  1  0
  6 12  1  0
 29 36  1  0
 29 37  1  0
  9  7  1  6
  7 13  1  0
 10  8  1  6
  8 14  1  0
 37 28  1  6
  4  5  1  0
 33 30  1  1
 30 38  1  0
 34 31  1  6
 31 39  1  0
 35 32  1  6
 32 40  1  0
 41 42  1  0
 41 43  1  0
 15 19  2  0
 16 22  2  0
 12 17  1  1
 17 19  1  0
 17 20  1  0
 18 19  1  0
 18 22  1  0
 18 23  1  0
  9 10  1  0
  9 11  1  0
 10 12  1  0
 11  5  1  1
 33 34  1  0
 33 35  1  0
 34 36  1  0
 35 37  1  0
 36 42  1  1
 20 21  2  0
 21 22  1  0
M  CHG  2   2  -1  26  -1
M  END
>  <COMPND>  (7) 
    8629 

>  <AUTHOR>  (7) 
    GENERATED BY OPEN BABEL 3.1.1

>  <MASTER>  (7) 
        0    0    0    0    0    0    0    0   58    0   58    0

>  <minimizedAffinity>  (7) 
-6.89798

>  <CNNscore>  (7) 
0.4135978818

>  <CNNaffinity>  (7) 
4.0652670860

>  <CNN_VS>  (7) 
1.6813858747

>  <CNNaffinity_variance>  (7) 
0.3350090683

$$$$
8
     RDKit          3D

 43 45  0  0  0  0  0  0  0  0999 V2000
   20.8440   71.7404   -2.0279 P   0  0  2  0  0  0  0  0  0  0  0  0
   21.8645   70.8702   -1.1231 O   0  0  0  0  0  0  0  0  0  0  0  0
   20.1552   72.8613   -1.3063 O   0  0  0  0  0  0  0  0  0  0  0  0
   19.8722   70.6311   -2.6934 O   0  0  0  0  0  0  0  0  0  0  0  0
   19.3049   70.9034   -3.9629 C   0  0  0  0  0  0  0  0  0  0  0  0
   17.2527   71.4648   -5.0797 O   0  0  0  0  0  0  0  0  0  0  0  0
   15.8652   69.9786   -2.8760 O   0  0  0  0  0  0  0  0  0  0  0  0
   15.8466   68.1695   -4.9164 O   0  0  0  0  0  0  0  0  0  0  0  0
   17.1120   69.6959   -3.5091 C   0  0  1  0  0  0  0  0  0  0  0  0
   16.8816   69.1314   -4.8954 C   0  0  2  0  0  0  0  0  0  0  0  0
   17.7943   71.0233   -3.8156 C   0  0  1  0  0  0  0  0  0  0  0  0
   16.5363   70.3792   -5.6904 C   0  0  2  0  0  0  0  0  0  0  0  0
   15.4110   69.1459   -2.6703 H   0  0  0  0  0  0  0  0  0  0  0  0
   16.1141   67.3952   -4.3972 H   0  0  0  0  0  0  0  0  0  0  0  0
   14.7314   70.2430   -7.8587 O   0  0  0  0  0  0  0  0  0  0  0  0
   18.1569   69.9889  -10.9316 O   0  0  0  0  0  0  0  0  0  0  0  0
   16.9291   70.2774   -7.0676 N   0  0  0  0  0  0  0  0  0  0  0  0
   16.4385   70.1168   -9.3870 N   0  0  0  0  0  0  0  0  0  0  0  0
   15.9437   70.2142   -8.0802 C   0  0  0  0  0  0  0  0  0  0  0  0
   18.2784   70.2415   -7.4025 C   0  0  0  0  0  0  0  0  0  0  0  0
   18.7337   70.1471   -8.6535 C   0  0  0  0  0  0  0  0  0  0  0  0
   17.7697   70.0763   -9.7704 C   0  0  0  0  0  0  0  0  0  0  0  0
   15.7704   70.0710  -10.1090 H   0  0  0  0  0  0  0  0  0  0  0  0
   21.7671   72.2069   -3.2702 O   0  0  0  0  0  0  0  0  0  0  0  0
   21.9231   73.6425   -3.9965 P   0  0  2  0  0  0  0  0  0  0  0  0
   23.0197   73.3570   -5.1513 O   0  0  0  0  0  0  0  0  0  0  0  0
   22.2804   74.7665   -3.0676 O   0  0  0  0  0  0  0  0  0  0  0  0
   20.5355   73.8497   -4.7944 O   0  0  0  0  0  0  0  0  0  0  0  0
   19.6833   75.3568   -6.4128 O   0  0  0  0  0  0  0  0  0  0  0  0
   16.5259   75.3912   -3.7519 O   0  0  0  0  0  0  0  0  0  0  0  0
   16.2417   74.0436   -6.2720 O   0  0  0  0  0  0  0  0  0  0  0  0
   19.2453   75.2953   -2.7645 O   0  0  0  0  0  0  0  0  0  0  0  0
   17.6169   74.8108   -4.4717 C   0  0  1  0  0  0  0  0  0  0  0  0
   17.3191   74.9251   -5.9680 C   0  0  1  0  0  0  0  0  0  0  0  0
   18.9013   75.5593   -4.1204 C   0  0  2  0  0  0  0  0  0  0  0  0
   18.5537   74.5694   -6.8074 C   0  0  1  0  0  0  0  0  0  0  0  0
   20.0545   75.1675   -5.0459 C   0  0  1  0  0  0  0  0  0  0  0  0
   15.7074   74.9202   -3.9701 H   0  0  0  0  0  0  0  0  0  0  0  0
   15.4686   74.2787   -5.7351 H   0  0  0  0  0  0  0  0  0  0  0  0
   18.5074   75.5479   -2.1887 H   0  0  0  0  0  0  0  0  0  0  0  0
   19.0113   76.0147   -8.6542 O   0  0  0  0  0  0  0  0  0  0  0  0
   18.3275   74.8281   -8.2953 C   0  0  0  0  0  0  0  0  0  0  0  0
   18.8765   76.1917   -9.5988 H   0  0  0  0  0  0  0  0  0  0  0  0
 25 28  1  0
 25 24  1  0
 25 26  1  6
 25 27  2  0
  1  4  1  0
  1 24  1  0
  1  2  1  1
  1  3  2  0
  6 11  1  0
  6 12  1  0
 29 36  1  0
 29 37  1  0
  9  7  1  6
  7 13  1  0
 10  8  1  1
  8 14  1  0
 37 28  1  6
  4  5  1  0
 33 30  1  1
 30 38  1  0
 34 31  1  6
 31 39  1  0
 35 32  1  1
 32 40  1  0
 41 42  1  0
 41 43  1  0
 15 19  2  0
 16 22  2  0
 12 17  1  6
 17 19  1  0
 17 20  1  0
 18 19  1  0
 18 22  1  0
 18 23  1  0
  9 10  1  0
  9 11  1  0
 10 12  1  0
 11  5  1  6
 33 34  1  0
 33 35  1  0
 34 36  1  0
 35 37  1  0
 36 42  1  6
 20 21  2  0
 21 22  1  0
M  CHG  2   2  -1  26  -1
M  END
>  <COMPND>  (8) 
    8629 

>  <AUTHOR>  (8) 
    GENERATED BY OPEN BABEL 3.1.1

>  <MASTER>  (8) 
        0    0    0    0    0    0    0    0   58    0   58    0

>  <minimizedAffinity>  (8) 
-6.89635

>  <CNNscore>  (8) 
0.4056946337

>  <CNNaffinity>  (8) 
4.0377235413

>  <CNN_VS>  (8) 
1.6380827427

>  <CNNaffinity_variance>  (8) 
0.5541757345

$$$$
9
     RDKit          3D

 43 45  0  0  0  0  0  0  0  0999 V2000
   21.2756   71.2654   -2.2119 P   0  0  2  0  0  0  0  0  0  0  0  0
   22.2589   71.2033   -3.4951 O   0  0  0  0  0  0  0  0  0  0  0  0
   21.9519   71.0781   -0.8856 O   0  0  0  0  0  0  0  0  0  0  0  0
   20.1105   70.1992   -2.5633 O   0  0  0  0  0  0  0  0  0  0  0  0
   19.4510   70.3058   -3.8130 C   0  0  0  0  0  0  0  0  0  0  0  0
   17.5409   71.3558   -4.8242 O   0  0  0  0  0  0  0  0  0  0  0  0
   15.9617   70.2830   -2.5120 O   0  0  0  0  0  0  0  0  0  0  0  0
   15.3675   68.5206   -4.5064 O   0  0  0  0  0  0  0  0  0  0  0  0
   17.0573   69.6913   -3.2082 C   0  0  1  0  0  0  0  0  0  0  0  0
   16.6095   69.1919   -4.5660 C   0  0  2  0  0  0  0  0  0  0  0  0
   18.0302   70.8023   -3.5830 C   0  0  1  0  0  0  0  0  0  0  0  0
   16.5399   70.4801   -5.3683 C   0  0  2  0  0  0  0  0  0  0  0  0
   15.3270   69.5927   -2.2620 H   0  0  0  0  0  0  0  0  0  0  0  0
   15.4636   67.7080   -3.9857 H   0  0  0  0  0  0  0  0  0  0  0  0
   14.6787   70.9438   -7.4417 O   0  0  0  0  0  0  0  0  0  0  0  0
   17.6882   69.6461  -10.6820 O   0  0  0  0  0  0  0  0  0  0  0  0
   16.8106   70.2721   -6.7629 N   0  0  0  0  0  0  0  0  0  0  0  0
   16.1788   70.2975   -9.0534 N   0  0  0  0  0  0  0  0  0  0  0  0
   15.8066   70.5342   -7.7240 C   0  0  0  0  0  0  0  0  0  0  0  0
   18.0603   69.8135   -7.1654 C   0  0  0  0  0  0  0  0  0  0  0  0
   18.3989   69.5915   -8.4371 C   0  0  0  0  0  0  0  0  0  0  0  0
   17.4074   69.8407   -9.5034 C   0  0  0  0  0  0  0  0  0  0  0  0
   15.4953   70.4728   -9.7403 H   0  0  0  0  0  0  0  0  0  0  0  0
   20.5318   72.6892   -2.3925 O   0  0  0  0  0  0  0  0  0  0  0  0
   21.1174   74.1953   -2.4329 P   0  0  2  0  0  0  0  0  0  0  0  0
   22.7195   73.9712   -2.4061 O   0  0  0  0  0  0  0  0  0  0  0  0
   20.5984   75.0868   -1.3422 O   0  0  0  0  0  0  0  0  0  0  0  0
   20.8036   74.7156   -3.9282 O   0  0  0  0  0  0  0  0  0  0  0  0
   19.1372   74.1317   -5.5090 O   0  0  0  0  0  0  0  0  0  0  0  0
   22.3642   74.5029   -8.0585 O   0  0  0  0  0  0  0  0  0  0  0  0
   20.3054   76.5051   -8.0764 O   0  0  0  0  0  0  0  0  0  0  0  0
   22.7232   73.3311   -5.4359 O   0  0  0  0  0  0  0  0  0  0  0  0
   21.5574   74.8252   -6.9225 C   0  0  1  0  0  0  0  0  0  0  0  0
   20.1737   75.2467   -7.4211 C   0  0  1  0  0  0  0  0  0  0  0  0
   21.4526   73.5972   -6.0200 C   0  0  2  0  0  0  0  0  0  0  0  0
   19.1746   75.3504   -6.2608 C   0  0  1  0  0  0  0  0  0  0  0  0
   20.3968   73.7863   -4.9293 C   0  0  1  0  0  0  0  0  0  0  0  0
   22.4351   75.2785   -8.6354 H   0  0  0  0  0  0  0  0  0  0  0  0
   20.9393   76.4261   -8.8065 H   0  0  0  0  0  0  0  0  0  0  0  0
   23.3827   73.2131   -6.1366 H   0  0  0  0  0  0  0  0  0  0  0  0
   17.6679   76.9634   -7.1756 O   0  0  0  0  0  0  0  0  0  0  0  0
   17.7531   75.6152   -6.7521 C   0  0  0  0  0  0  0  0  0  0  0  0
   16.7687   77.1463   -7.4913 H   0  0  0  0  0  0  0  0  0  0  0  0
 25 28  1  0
 25 24  1  0
 25 26  1  6
 25 27  2  0
  1  4  1  0
  1 24  1  0
  1  2  1  6
  1  3  2  0
  6 11  1  0
  6 12  1  0
 29 36  1  0
 29 37  1  0
  9  7  1  1
  7 13  1  0
 10  8  1  1
  8 14  1  0
 37 28  1  1
  4  5  1  0
 33 30  1  6
 30 38  1  0
 34 31  1  1
 31 39  1  0
 35 32  1  1
 32 40  1  0
 41 42  1  0
 41 43  1  0
 15 19  2  0
 16 22  2  0
 12 17  1  6
 17 19  1  0
 17 20  1  0
 18 19  1  0
 18 22  1  0
 18 23  1  0
  9 10  1  0
  9 11  1  0
 10 12  1  0
 11  5  1  6
 33 34  1  0
 33 35  1  0
 34 36  1  0
 35 37  1  0
 36 42  1  6
 20 21  2  0
 21 22  1  0
M  CHG  2   2  -1  26  -1
M  END
>  <COMPND>  (9) 
    8629 

>  <AUTHOR>  (9) 
    GENERATED BY OPEN BABEL 3.1.1

>  <MASTER>  (9) 
        0    0    0    0    0    0    0    0   58    0   58    0

>  <minimizedAffinity>  (9) 
-7.53837

>  <CNNscore>  (9) 
0.4009309709

>  <CNNaffinity>  (9) 
4.0740165710

>  <CNN_VS>  (9) 
1.6333993673

>  <CNNaffinity_variance>  (9) 
0.5985063314

$$$$
10
     RDKit          3D

 43 45  0  0  0  0  0  0  0  0999 V2000
   15.7552   70.8638   -3.7716 P   0  0  2  0  0  0  0  0  0  0  0  0
   15.5857   69.2912   -4.1118 O   0  0  0  0  0  0  0  0  0  0  0  0
   15.4152   71.2473   -2.3614 O   0  0  0  0  0  0  0  0  0  0  0  0
   14.8994   71.6056   -4.9272 O   0  0  0  0  0  0  0  0  0  0  0  0
   15.5422   72.5905   -5.7176 C   0  0  0  0  0  0  0  0  0  0  0  0
   16.2784   72.9649   -7.9740 O   0  0  0  0  0  0  0  0  0  0  0  0
   14.5715   70.6160   -8.7222 O   0  0  0  0  0  0  0  0  0  0  0  0
   17.0748   69.5361   -8.6613 O   0  0  0  0  0  0  0  0  0  0  0  0
   15.3459   70.8293   -7.5432 C   0  0  1  0  0  0  0  0  0  0  0  0
   16.8205   70.6613   -7.8452 C   0  0  2  0  0  0  0  0  0  0  0  0
   15.2607   72.3083   -7.1870 C   0  0  1  0  0  0  0  0  0  0  0  0
   17.1517   71.9725   -8.5375 C   0  0  2  0  0  0  0  0  0  0  0  0
   14.6104   69.6782   -8.9692 H   0  0  0  0  0  0  0  0  0  0  0  0
   16.8484   68.7271   -8.1765 H   0  0  0  0  0  0  0  0  0  0  0  0
   19.3446   71.0475  -10.0585 O   0  0  0  0  0  0  0  0  0  0  0  0
   22.3318   73.5844   -7.6331 O   0  0  0  0  0  0  0  0  0  0  0  0
   18.5134   72.3751   -8.3254 N   0  0  0  0  0  0  0  0  0  0  0  0
   20.8302   72.3116   -8.8497 N   0  0  0  0  0  0  0  0  0  0  0  0
   19.5406   71.8507   -9.1441 C   0  0  0  0  0  0  0  0  0  0  0  0
   18.8190   73.2805   -7.3150 C   0  0  0  0  0  0  0  0  0  0  0  0
   20.0541   73.7089   -7.0463 C   0  0  0  0  0  0  0  0  0  0  0  0
   21.1846   73.2096   -7.8555 C   0  0  0  0  0  0  0  0  0  0  0  0
   21.5619   71.9596   -9.4069 H   0  0  0  0  0  0  0  0  0  0  0  0
   17.2840   71.1659   -4.2011 O   0  0  0  0  0  0  0  0  0  0  0  0
   18.6761   70.5166   -3.6977 P   0  0  2  0  0  0  0  0  0  0  0  0
   19.3111   69.9033   -5.0534 O   0  0  0  0  0  0  0  0  0  0  0  0
   18.5242   69.5247   -2.5811 O   0  0  0  0  0  0  0  0  0  0  0  0
   19.6132   71.7825   -3.3449 O   0  0  0  0  0  0  0  0  0  0  0  0
   21.5455   72.8508   -4.2062 O   0  0  0  0  0  0  0  0  0  0  0  0
   22.7172   72.4430   -0.2677 O   0  0  0  0  0  0  0  0  0  0  0  0
   22.0170   75.0389   -1.2772 O   0  0  0  0  0  0  0  0  0  0  0  0
   21.2113   70.3307   -1.5523 O   0  0  0  0  0  0  0  0  0  0  0  0
   21.7909   72.6585   -1.3359 C   0  0  1  0  0  0  0  0  0  0  0  0
   22.2321   73.9025   -2.1095 C   0  0  1  0  0  0  0  0  0  0  0  0
   21.7857   71.4325   -2.2471 C   0  0  2  0  0  0  0  0  0  0  0  0
   21.4492   74.0454   -3.4217 C   0  0  1  0  0  0  0  0  0  0  0  0
   21.0217   71.6970   -3.5456 C   0  0  1  0  0  0  0  0  0  0  0  0
   22.7249   73.2176    0.3148 H   0  0  0  0  0  0  0  0  0  0  0  0
   22.5164   74.9359   -0.4519 H   0  0  0  0  0  0  0  0  0  0  0  0
   21.7041   70.1732   -0.7324 H   0  0  0  0  0  0  0  0  0  0  0  0
   23.0257   74.6896   -5.0976 O   0  0  0  0  0  0  0  0  0  0  0  0
   21.9808   75.1888   -4.2832 C   0  0  0  0  0  0  0  0  0  0  0  0
   23.3735   75.4064   -5.6517 H   0  0  0  0  0  0  0  0  0  0  0  0
 25 28  1  0
 25 24  1  0
 25 26  1  6
 25 27  2  0
  1  4  1  0
  1 24  1  0
  1  2  1  1
  1  3  2  0
  6 11  1  0
  6 12  1  0
 29 36  1  0
 29 37  1  0
  9  7  1  6
  7 13  1  0
 10  8  1  6
  8 14  1  0
 37 28  1  1
  4  5  1  0
 33 30  1  1
 30 38  1  0
 34 31  1  1
 31 39  1  0
 35 32  1  1
 32 40  1  0
 41 42  1  0
 41 43  1  0
 15 19  2  0
 16 22  2  0
 12 17  1  1
 17 19  1  0
 17 20  1  0
 18 19  1  0
 18 22  1  0
 18 23  1  0
  9 10  1  0
  9 11  1  0
 10 12  1  0
 11  5  1  1
 33 34  1  0
 33 35  1  0
 34 36  1  0
 35 37  1  0
 36 42  1  6
 20 21  2  0
 21 22  1  0
M  CHG  2   2  -1  26  -1
M  END
>  <COMPND>  (10) 
    8629 

>  <AUTHOR>  (10) 
    GENERATED BY OPEN BABEL 3.1.1

>  <MASTER>  (10) 
        0    0    0    0    0    0    0    0   58    0   58    0

>  <minimizedAffinity>  (10) 
-7.76304

>  <CNNscore>  (10) 
0.4004495442

>  <CNNaffinity>  (10) 
4.1437368393

>  <CNN_VS>  (10) 
1.6593575478

>  <CNNaffinity_variance>  (10) 
0.4768310189

$$$$
11
     RDKit          3D

 43 45  0  0  0  0  0  0  0  0999 V2000
   16.4423   74.4658   -5.7728 P   0  0  2  0  0  0  0  0  0  0  0  0
   15.0216   74.2018   -5.0452 O   0  0  0  0  0  0  0  0  0  0  0  0
   16.6795   75.8831   -6.2047 O   0  0  0  0  0  0  0  0  0  0  0  0
   16.4886   73.3557   -6.9490 O   0  0  0  0  0  0  0  0  0  0  0  0
   17.1571   73.6773   -8.1562 C   0  0  0  0  0  0  0  0  0  0  0  0
   18.2412   71.7052   -7.3140 O   0  0  0  0  0  0  0  0  0  0  0  0
   19.1893   71.2541  -10.1226 O   0  0  0  0  0  0  0  0  0  0  0  0
   17.0892   69.5265   -9.9195 O   0  0  0  0  0  0  0  0  0  0  0  0
   17.9478   71.7868   -9.6641 C   0  0  1  0  0  0  0  0  0  0  0  0
   17.0757   70.6817   -9.1058 C   0  0  2  0  0  0  0  0  0  0  0  0
   18.2273   72.6281   -8.4250 C   0  0  1  0  0  0  0  0  0  0  0  0
   17.7026   70.4438   -7.7425 C   0  0  2  0  0  0  0  0  0  0  0  0
   19.0364   70.7131  -10.9138 H   0  0  0  0  0  0  0  0  0  0  0  0
   16.6798   69.7288  -10.7752 H   0  0  0  0  0  0  0  0  0  0  0  0
   18.3769   69.3976   -5.2070 O   0  0  0  0  0  0  0  0  0  0  0  0
   13.9522   68.7360   -4.1002 O   0  0  0  0  0  0  0  0  0  0  0  0
   16.7468   69.9909   -6.7716 N   0  0  0  0  0  0  0  0  0  0  0  0
   16.1732   69.0692   -4.6579 N   0  0  0  0  0  0  0  0  0  0  0  0
   17.1898   69.4818   -5.5286 C   0  0  0  0  0  0  0  0  0  0  0  0
   15.3870   70.0543   -7.0559 C   0  0  0  0  0  0  0  0  0  0  0  0
   14.4302   69.6556   -6.2152 C   0  0  0  0  0  0  0  0  0  0  0  0
   14.8084   69.1110   -4.8952 C   0  0  0  0  0  0  0  0  0  0  0  0
   16.4581   68.7106   -3.7861 H   0  0  0  0  0  0  0  0  0  0  0  0
   17.5109   73.9020   -4.6988 O   0  0  0  0  0  0  0  0  0  0  0  0
   17.3275   73.4417   -3.1602 P   0  0  2  0  0  0  0  0  0  0  0  0
   16.6752   71.9668   -3.2895 O   0  0  0  0  0  0  0  0  0  0  0  0
   16.5315   74.3996   -2.3220 O   0  0  0  0  0  0  0  0  0  0  0  0
   18.8293   73.1783   -2.6309 O   0  0  0  0  0  0  0  0  0  0  0  0
   20.8954   73.4451   -3.7608 O   0  0  0  0  0  0  0  0  0  0  0  0
   21.8133   70.1258   -1.4825 O   0  0  0  0  0  0  0  0  0  0  0  0
   22.9618   72.6703   -0.8081 O   0  0  0  0  0  0  0  0  0  0  0  0
   19.1767   70.3936   -2.6472 O   0  0  0  0  0  0  0  0  0  0  0  0
   21.1880   71.3810   -1.7634 C   0  0  1  0  0  0  0  0  0  0  0  0
   22.2845   72.4129   -2.0350 C   0  0  1  0  0  0  0  0  0  0  0  0
   20.2820   71.2255   -2.9833 C   0  0  2  0  0  0  0  0  0  0  0  0
   21.6951   73.7112   -2.6026 C   0  0  1  0  0  0  0  0  0  0  0  0
   19.7895   72.5795   -3.4974 C   0  0  1  0  0  0  0  0  0  0  0  0
   22.3896   70.2176   -0.7086 H   0  0  0  0  0  0  0  0  0  0  0  0
   23.3288   71.8424   -0.4601 H   0  0  0  0  0  0  0  0  0  0  0  0
   19.5017   69.5396   -2.3234 H   0  0  0  0  0  0  0  0  0  0  0  0
   23.2632   75.3603   -1.8743 O   0  0  0  0  0  0  0  0  0  0  0  0
   22.7829   74.6950   -3.0280 C   0  0  0  0  0  0  0  0  0  0  0  0
   23.9564   75.9895   -2.1298 H   0  0  0  0  0  0  0  0  0  0  0  0
 25 28  1  0
 25 24  1  0
 25 26  1  6
 25 27  2  0
  1  4  1  0
  1 24  1  0
  1  2  1  1
  1  3  2  0
  6 11  1  0
  6 12  1  0
 29 36  1  0
 29 37  1  0
  9  7  1  1
  7 13  1  0
 10  8  1  6
  8 14  1  0
 37 28  1  1
  4  5  1  0
 33 30  1  6
 30 38  1  0
 34 31  1  1
 31 39  1  0
 35 32  1  1
 32 40  1  0
 41 42  1  0
 41 43  1  0
 15 19  2  0
 16 22  2  0
 12 17  1  1
 17 19  1  0
 17 20  1  0
 18 19  1  0
 18 22  1  0
 18 23  1  0
  9 10  1  0
  9 11  1  0
 10 12  1  0
 11  5  1  1
 33 34  1  0
 33 35  1  0
 34 36  1  0
 35 37  1  0
 36 42  1  6
 20 21  2  0
 21 22  1  0
M  CHG  2   2  -1  26  -1
M  END
>  <COMPND>  (11) 
    8629 

>  <AUTHOR>  (11) 
    GENERATED BY OPEN BABEL 3.1.1

>  <MASTER>  (11) 
        0    0    0    0    0    0    0    0   58    0   58    0

>  <minimizedAffinity>  (11) 
-6.60625

>  <CNNscore>  (11) 
0.3991298676

>  <CNNaffinity>  (11) 
4.0602102280

>  <CNN_VS>  (11) 
1.6205512285

>  <CNNaffinity_variance>  (11) 
0.6581303477

$$$$
12
     RDKit          3D

 43 45  0  0  0  0  0  0  0  0999 V2000
   18.7423   73.8870   -7.4826 P   0  0  2  0  0  0  0  0  0  0  0  0
   17.6069   73.6962   -6.3461 O   0  0  0  0  0  0  0  0  0  0  0  0
   18.3208   74.7034   -8.6688 O   0  0  0  0  0  0  0  0  0  0  0  0
   19.2267   72.3772   -7.8051 O   0  0  0  0  0  0  0  0  0  0  0  0
   18.8765   71.3465   -6.8979 C   0  0  0  0  0  0  0  0  0  0  0  0
   17.5000   69.3849   -6.7219 O   0  0  0  0  0  0  0  0  0  0  0  0
   17.0162   69.6887   -9.6655 O   0  0  0  0  0  0  0  0  0  0  0  0
   14.7381   70.7215   -8.5790 O   0  0  0  0  0  0  0  0  0  0  0  0
   17.1677   70.6967   -8.6673 C   0  0  1  0  0  0  0  0  0  0  0  0
   15.9221   70.7791   -7.8098 C   0  0  2  0  0  0  0  0  0  0  0  0
   18.2109   70.2138   -7.6674 C   0  0  1  0  0  0  0  0  0  0  0  0
   16.0866   69.5744   -6.8988 C   0  0  2  0  0  0  0  0  0  0  0  0
   16.3550   69.9747  -10.3158 H   0  0  0  0  0  0  0  0  0  0  0  0
   14.6793   71.5094   -9.1417 H   0  0  0  0  0  0  0  0  0  0  0  0
   14.6831   67.5807   -5.4730 O   0  0  0  0  0  0  0  0  0  0  0  0
   13.7932   70.4489   -1.9769 O   0  0  0  0  0  0  0  0  0  0  0  0
   15.4782   69.7727   -5.6135 N   0  0  0  0  0  0  0  0  0  0  0  0
   14.2413   69.0104   -3.7333 N   0  0  0  0  0  0  0  0  0  0  0  0
   14.7957   68.7063   -4.9832 C   0  0  0  0  0  0  0  0  0  0  0  0
   15.5620   71.0135   -4.9912 C   0  0  0  0  0  0  0  0  0  0  0  0
   15.0268   71.2876   -3.7997 C   0  0  0  0  0  0  0  0  0  0  0  0
   14.2966   70.2282   -3.0741 C   0  0  0  0  0  0  0  0  0  0  0  0
   13.7607   68.2829   -3.2755 H   0  0  0  0  0  0  0  0  0  0  0  0
   19.9877   74.4987   -6.6531 O   0  0  0  0  0  0  0  0  0  0  0  0
   21.5195   74.0008   -6.5170 P   0  0  2  0  0  0  0  0  0  0  0  0
   22.3154   75.3529   -6.1222 O   0  0  0  0  0  0  0  0  0  0  0  0
   22.0504   73.3032   -7.7358 O   0  0  0  0  0  0  0  0  0  0  0  0
   21.5409   73.1079   -5.1727 O   0  0  0  0  0  0  0  0  0  0  0  0
   19.7359   72.7315   -3.6838 O   0  0  0  0  0  0  0  0  0  0  0  0
   22.8607   72.5559   -0.9902 O   0  0  0  0  0  0  0  0  0  0  0  0
   21.4869   70.1440   -1.7273 O   0  0  0  0  0  0  0  0  0  0  0  0
   22.9250   74.4789   -3.1529 O   0  0  0  0  0  0  0  0  0  0  0  0
   22.2152   72.3612   -2.2515 C   0  0  1  0  0  0  0  0  0  0  0  0
   21.0058   71.4494   -2.0355 C   0  0  1  0  0  0  0  0  0  0  0  0
   21.7753   73.7166   -2.8016 C   0  0  2  0  0  0  0  0  0  0  0  0
   20.1126   71.4090   -3.2828 C   0  0  1  0  0  0  0  0  0  0  0  0
   20.8515   73.5624   -4.0111 C   0  0  1  0  0  0  0  0  0  0  0  0
   23.1430   71.6991   -0.6356 H   0  0  0  0  0  0  0  0  0  0  0  0
   22.0498   70.1835   -0.9382 H   0  0  0  0  0  0  0  0  0  0  0  0
   23.5016   74.5697   -2.3788 H   0  0  0  0  0  0  0  0  0  0  0  0
   19.1475   69.2704   -2.8317 O   0  0  0  0  0  0  0  0  0  0  0  0
   18.8209   70.6326   -3.0365 C   0  0  0  0  0  0  0  0  0  0  0  0
   18.3350   68.7640   -2.6733 H   0  0  0  0  0  0  0  0  0  0  0  0
 25 28  1  0
 25 24  1  0
 25 26  1  1
 25 27  2  0
  1  4  1  0
  1 24  1  0
  1  2  1  1
  1  3  2  0
  6 11  1  0
  6 12  1  0
 29 36  1  0
 29 37  1  0
  9  7  1  6
  7 13  1  0
 10  8  1  6
  8 14  1  0
 37 28  1  6
  4  5  1  0
 33 30  1  1
 30 38  1  0
 34 31  1  6
 31 39  1  0
 35 32  1  6
 32 40  1  0
 41 42  1  0
 41 43  1  0
 15 19  2  0
 16 22  2  0
 12 17  1  1
 17 19  1  0
 17 20  1  0
 18 19  1  0
 18 22  1  0
 18 23  1  0
  9 10  1  0
  9 11  1  0
 10 12  1  0
 11  5  1  1
 33 34  1  0
 33 35  1  0
 34 36  1  0
 35 37  1  0
 36 42  1  1
 20 21  2  0
 21 22  1  0
M  CHG  2   2  -1  26  -1
M  END
>  <COMPND>  (12) 
    8629 

>  <AUTHOR>  (12) 
    GENERATED BY OPEN BABEL 3.1.1

>  <MASTER>  (12) 
        0    0    0    0    0    0    0    0   58    0   58    0

>  <minimizedAffinity>  (12) 
-7.70894

>  <CNNscore>  (12) 
0.3982370496

>  <CNNaffinity>  (12) 
4.1485939026

>  <CNN_VS>  (12) 
1.6521238089

>  <CNNaffinity_variance>  (12) 
0.4718028605

$$$$
13
     RDKit          3D

 43 45  0  0  0  0  0  0  0  0999 V2000
   18.9793   74.1459   -5.2373 P   0  0  2  0  0  0  0  0  0  0  0  0
   18.8157   73.7975   -3.6659 O   0  0  0  0  0  0  0  0  0  0  0  0
   17.7059   74.5125   -5.9411 O   0  0  0  0  0  0  0  0  0  0  0  0
   19.7715   72.8692   -5.8377 O   0  0  0  0  0  0  0  0  0  0  0  0
   19.5791   72.5341   -7.2009 C   0  0  0  0  0  0  0  0  0  0  0  0
   17.3970   71.5309   -7.2780 O   0  0  0  0  0  0  0  0  0  0  0  0
   18.7651   69.0829   -8.3393 O   0  0  0  0  0  0  0  0  0  0  0  0
   17.7300   70.2109  -10.5960 O   0  0  0  0  0  0  0  0  0  0  0  0
   19.0628   70.4577   -8.5776 C   0  0  1  0  0  0  0  0  0  0  0  0
   18.0363   71.0637   -9.5118 C   0  0  2  0  0  0  0  0  0  0  0  0
   18.8084   71.2237   -7.2854 C   0  0  1  0  0  0  0  0  0  0  0  0
   16.8527   71.2772   -8.5835 C   0  0  2  0  0  0  0  0  0  0  0  0
   18.9205   68.5733   -9.1505 H   0  0  0  0  0  0  0  0  0  0  0  0
   18.5143   70.1065  -11.1570 H   0  0  0  0  0  0  0  0  0  0  0  0
   14.0816   71.4960   -8.0825 O   0  0  0  0  0  0  0  0  0  0  0  0
   13.8490   75.6139  -10.1391 O   0  0  0  0  0  0  0  0  0  0  0  0
   16.0432   72.3959   -8.9766 N   0  0  0  0  0  0  0  0  0  0  0  0
   13.9681   73.5463   -9.1068 N   0  0  0  0  0  0  0  0  0  0  0  0
   14.6608   72.4070   -8.6777 C   0  0  0  0  0  0  0  0  0  0  0  0
   16.6208   73.4665   -9.6505 C   0  0  0  0  0  0  0  0  0  0  0  0
   15.9461   74.5450  -10.0540 C   0  0  0  0  0  0  0  0  0  0  0  0
   14.4972   74.6355   -9.7809 C   0  0  0  0  0  0  0  0  0  0  0  0
   13.0037   73.5759   -8.9099 H   0  0  0  0  0  0  0  0  0  0  0  0
   20.1058   75.3052   -5.2372 O   0  0  0  0  0  0  0  0  0  0  0  0
   21.6908   75.2453   -4.9255 P   0  0  2  0  0  0  0  0  0  0  0  0
   22.1207   76.8045   -4.8874 O   0  0  0  0  0  0  0  0  0  0  0  0
   22.4771   74.4096   -5.8936 O   0  0  0  0  0  0  0  0  0  0  0  0
   21.7870   74.7583   -3.3897 O   0  0  0  0  0  0  0  0  0  0  0  0
   23.5433   74.5925   -1.8072 O   0  0  0  0  0  0  0  0  0  0  0  0
   21.6803   70.9747   -1.1066 O   0  0  0  0  0  0  0  0  0  0  0  0
   21.4445   73.0882    0.8235 O   0  0  0  0  0  0  0  0  0  0  0  0
   21.9000   71.9860   -3.8100 O   0  0  0  0  0  0  0  0  0  0  0  0
   21.7446   72.3648   -1.4365 C   0  0  1  0  0  0  0  0  0  0  0  0
   22.3734   73.1090   -0.2568 C   0  0  1  0  0  0  0  0  0  0  0  0
   22.5912   72.5403   -2.6958 C   0  0  2  0  0  0  0  0  0  0  0  0
   22.7202   74.5551   -0.6356 C   0  0  1  0  0  0  0  0  0  0  0  0
   22.9203   74.0117   -2.9545 C   0  0  1  0  0  0  0  0  0  0  0  0
   21.1437   70.8562   -0.3081 H   0  0  0  0  0  0  0  0  0  0  0  0
   21.2335   72.1694    1.0525 H   0  0  0  0  0  0  0  0  0  0  0  0
   21.6977   71.0543   -3.6339 H   0  0  0  0  0  0  0  0  0  0  0  0
   24.0437   74.2906    1.3360 O   0  0  0  0  0  0  0  0  0  0  0  0
   23.4907   75.2678    0.4738 C   0  0  0  0  0  0  0  0  0  0  0  0
   24.5373   74.7297    2.0469 H   0  0  0  0  0  0  0  0  0  0  0  0
 25 28  1  0
 25 24  1  0
 25 26  1  1
 25 27  2  0
  1  4  1  0
  1 24  1  0
  1  2  1  1
  1  3  2  0
  6 11  1  0
  6 12  1  0
 29 36  1  0
 29 37  1  0
  9  7  1  1
  7 13  1  0
 10  8  1  6
  8 14  1  0
 37 28  1  1
  4  5  1  0
 33 30  1  1
 30 38  1  0
 34 31  1  1
 31 39  1  0
 35 32  1  6
 32 40  1  0
 41 42  1  0
 41 43  1  0
 15 19  2  0
 16 22  2  0
 12 17  1  6
 17 19  1  0
 17 20  1  0
 18 19  1  0
 18 22  1  0
 18 23  1  0
  9 10  1  0
  9 11  1  0
 10 12  1  0
 11  5  1  6
 33 34  1  0
 33 35  1  0
 34 36  1  0
 35 37  1  0
 36 42  1  1
 20 21  2  0
 21 22  1  0
M  CHG  2   2  -1  26  -1
M  END
>  <COMPND>  (13) 
    8629 

>  <AUTHOR>  (13) 
    GENERATED BY OPEN BABEL 3.1.1

>  <MASTER>  (13) 
        0    0    0    0    0    0    0    0   58    0   58    0

>  <minimizedAffinity>  (13) 
-6.68632

>  <CNNscore>  (13) 
0.3870892227

>  <CNNaffinity>  (13) 
4.0030374527

>  <CNN_VS>  (13) 
1.5495326519

>  <CNNaffinity_variance>  (13) 
0.1623373032

$$$$
14
     RDKit          3D

 43 45  0  0  0  0  0  0  0  0999 V2000
   18.9324   74.5490   -7.6099 P   0  0  2  0  0  0  0  0  0  0  0  0
   18.1673   75.4123   -8.7442 O   0  0  0  0  0  0  0  0  0  0  0  0
   20.4022   74.8247   -7.4875 O   0  0  0  0  0  0  0  0  0  0  0  0
   18.5304   73.0189   -7.9493 O   0  0  0  0  0  0  0  0  0  0  0  0
   19.5686   72.0779   -8.1596 C   0  0  0  0  0  0  0  0  0  0  0  0
   18.6861   69.9160   -7.5926 O   0  0  0  0  0  0  0  0  0  0  0  0
   17.4437   69.9147  -10.3215 O   0  0  0  0  0  0  0  0  0  0  0  0
   15.3469   70.5903   -8.7142 O   0  0  0  0  0  0  0  0  0  0  0  0
   17.6371   71.0024   -9.4188 C   0  0  1  0  0  0  0  0  0  0  0  0
   16.6492   70.9176   -8.2741 C   0  0  2  0  0  0  0  0  0  0  0  0
   18.9675   70.7906   -8.7072 C   0  0  1  0  0  0  0  0  0  0  0  0
   17.2637   69.8316   -7.4074 C   0  0  2  0  0  0  0  0  0  0  0  0
   16.6003   70.0280  -10.7881 H   0  0  0  0  0  0  0  0  0  0  0  0
   14.9995   71.3118   -9.2613 H   0  0  0  0  0  0  0  0  0  0  0  0
   16.3450   67.7766   -5.7012 O   0  0  0  0  0  0  0  0  0  0  0  0
   16.1433   70.6217   -2.0810 O   0  0  0  0  0  0  0  0  0  0  0  0
   16.9636   70.0074   -6.0144 N   0  0  0  0  0  0  0  0  0  0  0  0
   16.2455   69.1949   -3.9000 N   0  0  0  0  0  0  0  0  0  0  0  0
   16.5073   68.9108   -5.2464 C   0  0  0  0  0  0  0  0  0  0  0  0
   17.1227   71.2561   -5.4234 C   0  0  0  0  0  0  0  0  0  0  0  0
   16.8674   71.5108   -4.1384 C   0  0  0  0  0  0  0  0  0  0  0  0
   16.3869   70.4194   -3.2666 C   0  0  0  0  0  0  0  0  0  0  0  0
   15.9262   68.4462   -3.3456 H   0  0  0  0  0  0  0  0  0  0  0  0
   18.0758   74.8622   -6.2753 O   0  0  0  0  0  0  0  0  0  0  0  0
   18.5453   75.2838   -4.7871 P   0  0  2  0  0  0  0  0  0  0  0  0
   17.2276   75.0071   -3.8900 O   0  0  0  0  0  0  0  0  0  0  0  0
   19.0821   76.6821   -4.6842 O   0  0  0  0  0  0  0  0  0  0  0  0
   19.5876   74.1330   -4.3463 O   0  0  0  0  0  0  0  0  0  0  0  0
   20.8002   74.7055   -2.3922 O   0  0  0  0  0  0  0  0  0  0  0  0
   22.9580   71.3836   -3.5581 O   0  0  0  0  0  0  0  0  0  0  0  0
   21.2325   71.2215   -1.2681 O   0  0  0  0  0  0  0  0  0  0  0  0
   21.9536   73.2260   -5.5523 O   0  0  0  0  0  0  0  0  0  0  0  0
   21.7823   72.1802   -3.3893 C   0  0  1  0  0  0  0  0  0  0  0  0
   21.5955   72.4487   -1.8947 C   0  0  1  0  0  0  0  0  0  0  0  0
   21.9538   73.4916   -4.1537 C   0  0  2  0  0  0  0  0  0  0  0  0
   20.5154   73.5118   -1.6535 C   0  0  1  0  0  0  0  0  0  0  0  0
   20.8548   74.4967   -3.8047 C   0  0  1  0  0  0  0  0  0  0  0  0
   22.8553   70.5493   -3.0756 H   0  0  0  0  0  0  0  0  0  0  0  0
   21.9225   70.5587   -1.4284 H   0  0  0  0  0  0  0  0  0  0  0  0
   22.6538   72.5886   -5.7603 H   0  0  0  0  0  0  0  0  0  0  0  0
   21.4223   73.2101    0.5363 O   0  0  0  0  0  0  0  0  0  0  0  0
   20.4226   73.9093   -0.1819 C   0  0  0  0  0  0  0  0  0  0  0  0
   21.3754   73.4534    1.4746 H   0  0  0  0  0  0  0  0  0  0  0  0
 25 28  1  0
 25 24  1  0
 25 26  1  1
 25 27  2  0
  1  4  1  0
  1 24  1  0
  1  2  1  6
  1  3  2  0
  6 11  1  0
  6 12  1  0
 29 36  1  0
 29 37  1  0
  9  7  1  6
  7 13  1  0
 10  8  1  6
  8 14  1  0
 37 28  1  1
  4  5  1  0
 33 30  1  1
 30 38  1  0
 34 31  1  1
 31 39  1  0
 35 32  1  6
 32 40  1  0
 41 42  1  0
 41 43  1  0
 15 19  2  0
 16 22  2  0
 12 17  1  1
 17 19  1  0
 17 20  1  0
 18 19  1  0
 18 22  1  0
 18 23  1  0
  9 10  1  0
  9 11  1  0
 10 12  1  0
 11  5  1  1
 33 34  1  0
 33 35  1  0
 34 36  1  0
 35 37  1  0
 36 42  1  1
 20 21  2  0
 21 22  1  0
M  CHG  2   2  -1  26  -1
M  END
>  <COMPND>  (14) 
    8629 

>  <AUTHOR>  (14) 
    GENERATED BY OPEN BABEL 3.1.1

>  <MASTER>  (14) 
        0    0    0    0    0    0    0    0   58    0   58    0

>  <minimizedAffinity>  (14) 
-6.85369

>  <CNNscore>  (14) 
0.3426803946

>  <CNNaffinity>  (14) 
4.0183706284

>  <CNN_VS>  (14) 
1.3770167828

>  <CNNaffinity_variance>  (14) 
0.5379205942

$$$$
15
     RDKit          3D

 43 45  0  0  0  0  0  0  0  0999 V2000
   22.4180   74.0819   -3.9385 P   0  0  2  0  0  0  0  0  0  0  0  0
   23.0974   75.4482   -3.4010 O   0  0  0  0  0  0  0  0  0  0  0  0
   22.9603   73.5747   -5.2424 O   0  0  0  0  0  0  0  0  0  0  0  0
   20.8319   74.4009   -3.9137 O   0  0  0  0  0  0  0  0  0  0  0  0
   20.0087   73.8144   -4.9068 C   0  0  0  0  0  0  0  0  0  0  0  0
   17.8260   72.8774   -5.2692 O   0  0  0  0  0  0  0  0  0  0  0  0
   18.0761   71.7092   -2.5190 O   0  0  0  0  0  0  0  0  0  0  0  0
   18.6592   69.5826   -4.1234 O   0  0  0  0  0  0  0  0  0  0  0  0
   19.0811   71.8981   -3.5138 C   0  0  1  0  0  0  0  0  0  0  0  0
   18.9222   70.8783   -4.6221 C   0  0  2  0  0  0  0  0  0  0  0  0
   18.7839   73.2048   -4.2389 C   0  0  1  0  0  0  0  0  0  0  0  0
   17.7558   71.4491   -5.4106 C   0  0  2  0  0  0  0  0  0  0  0  0
   18.2449   70.8809   -2.0422 H   0  0  0  0  0  0  0  0  0  0  0  0
   19.4306   69.2634   -3.6295 H   0  0  0  0  0  0  0  0  0  0  0  0
   16.8128   69.0277   -6.5176 O   0  0  0  0  0  0  0  0  0  0  0  0
   18.0625   70.2744  -10.7749 O   0  0  0  0  0  0  0  0  0  0  0  0
   17.8218   71.1148   -6.8054 N   0  0  0  0  0  0  0  0  0  0  0  0
   17.4357   69.6505   -8.6365 N   0  0  0  0  0  0  0  0  0  0  0  0
   17.3207   69.8721   -7.2582 C   0  0  0  0  0  0  0  0  0  0  0  0
   18.3782   72.0145   -7.7080 C   0  0  0  0  0  0  0  0  0  0  0  0
   18.4816   71.7875   -9.0192 C   0  0  0  0  0  0  0  0  0  0  0  0
   17.9819   70.5129   -9.5739 C   0  0  0  0  0  0  0  0  0  0  0  0
   17.0936   68.7912   -8.9748 H   0  0  0  0  0  0  0  0  0  0  0  0
   22.6043   73.0688   -2.6928 O   0  0  0  0  0  0  0  0  0  0  0  0
   21.9677   73.0848   -1.2070 P   0  0  2  0  0  0  0  0  0  0  0  0
   21.9353   71.5192   -0.8003 O   0  0  0  0  0  0  0  0  0  0  0  0
   20.6384   73.7763   -1.1146 O   0  0  0  0  0  0  0  0  0  0  0  0
   23.1204   73.7242   -0.2756 O   0  0  0  0  0  0  0  0  0  0  0  0
   22.5056   75.0950    1.5572 O   0  0  0  0  0  0  0  0  0  0  0  0
   26.4063   76.3583    1.0678 O   0  0  0  0  0  0  0  0  0  0  0  0
   25.7210   74.7116    3.3188 O   0  0  0  0  0  0  0  0  0  0  0  0
   24.7781   75.7674   -1.2515 O   0  0  0  0  0  0  0  0  0  0  0  0
   25.3327   75.4134    1.0655 C   0  0  1  0  0  0  0  0  0  0  0  0
   24.7553   75.3400    2.4804 C   0  0  1  0  0  0  0  0  0  0  0  0
   24.2662   75.8721    0.0727 C   0  0  2  0  0  0  0  0  0  0  0  0
   23.4375   74.5538    2.5009 C   0  0  1  0  0  0  0  0  0  0  0  0
   22.9791   75.0568    0.2096 C   0  0  1  0  0  0  0  0  0  0  0  0
   27.0871   76.0726    1.6958 H   0  0  0  0  0  0  0  0  0  0  0  0
   26.5484   75.2176    3.2966 H   0  0  0  0  0  0  0  0  0  0  0  0
   25.5925   76.2881   -1.3253 H   0  0  0  0  0  0  0  0  0  0  0  0
   23.5269   73.8232    4.7740 O   0  0  0  0  0  0  0  0  0  0  0  0
   22.7641   74.6019    3.8706 C   0  0  0  0  0  0  0  0  0  0  0  0
   23.1103   73.8448    5.6502 H   0  0  0  0  0  0  0  0  0  0  0  0
 25 28  1  0
 25 24  1  0
 25 26  1  1
 25 27  2  0
  1  4  1  0
  1 24  1  0
  1  2  1  1
  1  3  2  0
  6 11  1  0
  6 12  1  0
 29 36  1  0
 29 37  1  0
  9  7  1  1
  7 13  1  0
 10  8  1  1
  8 14  1  0
 37 28  1  1
  4  5  1  0
 33 30  1  1
 30 38  1  0
 34 31  1  1
 31 39  1  0
 35 32  1  6
 32 40  1  0
 41 42  1  0
 41 43  1  0
 15 19  2  0
 16 22  2  0
 12 17  1  6
 17 19  1  0
 17 20  1  0
 18 19  1  0
 18 22  1  0
 18 23  1  0
  9 10  1  0
  9 11  1  0
 10 12  1  0
 11  5  1  6
 33 34  1  0
 33 35  1  0
 34 36  1  0
 35 37  1  0
 36 42  1  1
 20 21  2  0
 21 22  1  0
M  CHG  2   2  -1  26  -1
M  END
>  <COMPND>  (15) 
    8629 

>  <AUTHOR>  (15) 
    GENERATED BY OPEN BABEL 3.1.1

>  <MASTER>  (15) 
        0    0    0    0    0    0    0    0   58    0   58    0

>  <minimizedAffinity>  (15) 
-6.85095

>  <CNNscore>  (15) 
0.3229223788

>  <CNNaffinity>  (15) 
3.9898178577

>  <CNN_VS>  (15) 
1.2884014845

>  <CNNaffinity_variance>  (15) 
0.1863486022

$$$$
16
     RDKit          3D

 43 45  0  0  0  0  0  0  0  0999 V2000
   18.8441   70.3444   -4.0911 P   0  0  2  0  0  0  0  0  0  0  0  0
   18.9764   69.5171   -2.7070 O   0  0  0  0  0  0  0  0  0  0  0  0
   18.8605   69.5055   -5.3350 O   0  0  0  0  0  0  0  0  0  0  0  0
   20.0048   71.4667   -3.9852 O   0  0  0  0  0  0  0  0  0  0  0  0
   19.7439   72.6405   -3.2356 C   0  0  0  0  0  0  0  0  0  0  0  0
   20.8724   74.7447   -2.9654 O   0  0  0  0  0  0  0  0  0  0  0  0
   21.6625   74.4779   -5.8455 O   0  0  0  0  0  0  0  0  0  0  0  0
   23.9279   73.7129   -4.5344 O   0  0  0  0  0  0  0  0  0  0  0  0
   21.5297   73.4657   -4.8489 C   0  0  1  0  0  0  0  0  0  0  0  0
   22.6903   73.5284   -3.8779 C   0  0  2  0  0  0  0  0  0  0  0  0
   20.3498   73.8355   -3.9587 C   0  0  1  0  0  0  0  0  0  0  0  0
   22.3084   74.7130   -3.0067 C   0  0  2  0  0  0  0  0  0  0  0  0
   22.4097   74.2633   -6.4266 H   0  0  0  0  0  0  0  0  0  0  0  0
   24.1263   72.9329   -5.0757 H   0  0  0  0  0  0  0  0  0  0  0  0
   23.9518   76.6293   -1.7398 O   0  0  0  0  0  0  0  0  0  0  0  0
   24.1777   74.1432    2.1344 O   0  0  0  0  0  0  0  0  0  0  0  0
   22.8108   74.5921   -1.6671 N   0  0  0  0  0  0  0  0  0  0  0  0
   24.0628   75.3899    0.1883 N   0  0  0  0  0  0  0  0  0  0  0  0
   23.6293   75.6105   -1.1253 C   0  0  0  0  0  0  0  0  0  0  0  0
   22.4910   73.4736   -0.9053 C   0  0  0  0  0  0  0  0  0  0  0  0
   22.9135   73.2777    0.3454 C   0  0  0  0  0  0  0  0  0  0  0  0
   23.7730   74.2942    0.9858 C   0  0  0  0  0  0  0  0  0  0  0  0
   24.6345   76.0859    0.5864 H   0  0  0  0  0  0  0  0  0  0  0  0
   17.4901   71.2005   -3.8748 O   0  0  0  0  0  0  0  0  0  0  0  0
   16.3834   71.7216   -4.9316 P   0  0  2  0  0  0  0  0  0  0  0  0
   16.7225   73.2968   -5.0774 O   0  0  0  0  0  0  0  0  0  0  0  0
   14.9661   71.4275   -4.5335 O   0  0  0  0  0  0  0  0  0  0  0  0
   16.8297   71.0763   -6.3420 O   0  0  0  0  0  0  0  0  0  0  0  0
   18.0610   72.4792   -7.8023 O   0  0  0  0  0  0  0  0  0  0  0  0
   16.9300   69.5575  -10.4921 O   0  0  0  0  0  0  0  0  0  0  0  0
   19.6623   69.7001   -9.6193 O   0  0  0  0  0  0  0  0  0  0  0  0
   15.0825   70.4227   -8.4384 O   0  0  0  0  0  0  0  0  0  0  0  0
   17.3335   70.0716   -9.2200 C   0  0  1  0  0  0  0  0  0  0  0  0
   18.7055   70.7289   -9.3817 C   0  0  1  0  0  0  0  0  0  0  0  0
   16.3013   71.0919   -8.7437 C   0  0  2  0  0  0  0  0  0  0  0  0
   19.0852   71.5334   -8.1312 C   0  0  1  0  0  0  0  0  0  0  0  0
   16.7981   71.8711   -7.5246 C   0  0  1  0  0  0  0  0  0  0  0  0
   17.5809   68.9086  -10.8000 H   0  0  0  0  0  0  0  0  0  0  0  0
   19.4107   69.1994  -10.4112 H   0  0  0  0  0  0  0  0  0  0  0  0
   14.7782   69.9335   -9.2181 H   0  0  0  0  0  0  0  0  0  0  0  0
   20.0777   73.7049   -8.2252 O   0  0  0  0  0  0  0  0  0  0  0  0
   20.3759   72.3250   -8.3305 C   0  0  0  0  0  0  0  0  0  0  0  0
   20.8899   74.2211   -8.3496 H   0  0  0  0  0  0  0  0  0  0  0  0
 25 28  1  0
 25 24  1  0
 25 26  1  6
 25 27  2  0
  1  4  1  0
  1 24  1  0
  1  2  1  1
  1  3  2  0
  6 11  1  0
  6 12  1  0
 29 36  1  0
 29 37  1  0
  9  7  1  6
  7 13  1  0
 10  8  1  6
  8 14  1  0
 37 28  1  1
  4  5  1  0
 33 30  1  6
 30 38  1  0
 34 31  1  1
 31 39  1  0
 35 32  1  1
 32 40  1  0
 41 42  1  0
 41 43  1  0
 15 19  2  0
 16 22  2  0
 12 17  1  1
 17 19  1  0
 17 20  1  0
 18 19  1  0
 18 22  1  0
 18 23  1  0
  9 10  1  0
  9 11  1  0
 10 12  1  0
 11  5  1  1
 33 34  1  0
 33 35  1  0
 34 36  1  0
 35 37  1  0
 36 42  1  6
 20 21  2  0
 21 22  1  0
M  CHG  2   2  -1  26  -1
M  END
>  <COMPND>  (16) 
    8629 

>  <AUTHOR>  (16) 
    GENERATED BY OPEN BABEL 3.1.1

>  <MASTER>  (16) 
        0    0    0    0    0    0    0    0   58    0   58    0

>  <minimizedAffinity>  (16) 
-7.49069

>  <CNNscore>  (16) 
0.3194588125

>  <CNNaffinity>  (16) 
3.7591400146

>  <CNN_VS>  (16) 
1.2008904219

>  <CNNaffinity_variance>  (16) 
0.5079790354

$$$$
17
     RDKit          3D

 43 45  0  0  0  0  0  0  0  0999 V2000
   21.1055   73.8372   -6.3219 P   0  0  2  0  0  0  0  0  0  0  0  0
   20.8894   75.4376   -6.2254 O   0  0  0  0  0  0  0  0  0  0  0  0
   22.3284   73.4072   -7.0777 O   0  0  0  0  0  0  0  0  0  0  0  0
   19.6957   73.2889   -6.8962 O   0  0  0  0  0  0  0  0  0  0  0  0
   19.6846   72.6436   -8.1576 C   0  0  0  0  0  0  0  0  0  0  0  0
   18.1637   71.0508   -7.1966 O   0  0  0  0  0  0  0  0  0  0  0  0
   19.4130   69.0332   -9.0295 O   0  0  0  0  0  0  0  0  0  0  0  0
   17.0924   69.6529  -10.3209 O   0  0  0  0  0  0  0  0  0  0  0  0
   19.1425   70.4151   -9.2590 C   0  0  1  0  0  0  0  0  0  0  0  0
   17.6591   70.6318   -9.4740 C   0  0  2  0  0  0  0  0  0  0  0  0
   19.3877   71.1641   -7.9551 C   0  0  1  0  0  0  0  0  0  0  0  0
   17.1212   70.5596   -8.0550 C   0  0  2  0  0  0  0  0  0  0  0  0
   19.2636   68.5343   -9.8485 H   0  0  0  0  0  0  0  0  0  0  0  0
   17.4664   69.7400  -11.2116 H   0  0  0  0  0  0  0  0  0  0  0  0
   14.9317   69.8450   -6.4200 O   0  0  0  0  0  0  0  0  0  0  0  0
   12.6727   73.7330   -7.4309 O   0  0  0  0  0  0  0  0  0  0  0  0
   15.9479   71.3666   -7.8724 N   0  0  0  0  0  0  0  0  0  0  0  0
   13.8087   71.7816   -6.9245 N   0  0  0  0  0  0  0  0  0  0  0  0
   14.9047   70.9157   -7.0303 C   0  0  0  0  0  0  0  0  0  0  0  0
   15.8401   72.5904   -8.5240 C   0  0  0  0  0  0  0  0  0  0  0  0
   14.7878   73.4037   -8.4136 C   0  0  0  0  0  0  0  0  0  0  0  0
   13.6546   73.0071   -7.5530 C   0  0  0  0  0  0  0  0  0  0  0  0
   13.0697   71.4882   -6.3436 H   0  0  0  0  0  0  0  0  0  0  0  0
   21.0730   73.3720   -4.7742 O   0  0  0  0  0  0  0  0  0  0  0  0
   22.2695   73.1039   -3.7209 P   0  0  2  0  0  0  0  0  0  0  0  0
   23.5220   73.8932   -4.3735 O   0  0  0  0  0  0  0  0  0  0  0  0
   22.5299   71.6520   -3.4419 O   0  0  0  0  0  0  0  0  0  0  0  0
   21.8720   73.9740   -2.4210 O   0  0  0  0  0  0  0  0  0  0  0  0
   23.0180   75.5804   -1.1084 O   0  0  0  0  0  0  0  0  0  0  0  0
   21.2151   73.4225    1.9154 O   0  0  0  0  0  0  0  0  0  0  0  0
   20.2518   76.0528    1.2819 O   0  0  0  0  0  0  0  0  0  0  0  0
   22.2578   72.0530   -0.4120 O   0  0  0  0  0  0  0  0  0  0  0  0
   21.3132   74.0150    0.6175 C   0  0  1  0  0  0  0  0  0  0  0  0
   21.4814   75.5257    0.7913 C   0  0  1  0  0  0  0  0  0  0  0  0
   22.5159   73.4207   -0.1130 C   0  0  2  0  0  0  0  0  0  0  0  0
   21.8591   76.1974   -0.5357 C   0  0  1  0  0  0  0  0  0  0  0  0
   22.8363   74.1922   -1.3944 C   0  0  1  0  0  0  0  0  0  0  0  0
   20.4531   73.7952    2.3843 H   0  0  0  0  0  0  0  0  0  0  0  0
   20.0245   75.6200    2.1199 H   0  0  0  0  0  0  0  0  0  0  0  0
   22.0567   71.5754    0.4073 H   0  0  0  0  0  0  0  0  0  0  0  0
   22.4993   77.9060    1.0070 O   0  0  0  0  0  0  0  0  0  0  0  0
   22.1856   77.6782   -0.3547 C   0  0  0  0  0  0  0  0  0  0  0  0
   22.7095   78.8443    1.1371 H   0  0  0  0  0  0  0  0  0  0  0  0
 25 28  1  0
 25 24  1  0
 25 26  1  6
 25 27  2  0
  1  4  1  0
  1 24  1  0
  1  2  1  1
  1  3  2  0
  6 11  1  0
  6 12  1  0
 29 36  1  0
 29 37  1  0
  9  7  1  1
  7 13  1  0
 10  8  1  6
  8 14  1  0
 37 28  1  6
  4  5  1  0
 33 30  1  1
 30 38  1  0
 34 31  1  6
 31 39  1  0
 35 32  1  6
 32 40  1  0
 41 42  1  0
 41 43  1  0
 15 19  2  0
 16 22  2  0
 12 17  1  6
 17 19  1  0
 17 20  1  0
 18 19  1  0
 18 22  1  0
 18 23  1  0
  9 10  1  0
  9 11  1  0
 10 12  1  0
 11  5  1  6
 33 34  1  0
 33 35  1  0
 34 36  1  0
 35 37  1  0
 36 42  1  1
 20 21  2  0
 21 22  1  0
M  CHG  2   2  -1  26  -1
M  END
>  <COMPND>  (17) 
    8629 

>  <AUTHOR>  (17) 
    GENERATED BY OPEN BABEL 3.1.1

>  <MASTER>  (17) 
        0    0    0    0    0    0    0    0   58    0   58    0

>  <minimizedAffinity>  (17) 
-7.36687

>  <CNNscore>  (17) 
0.3075423539

>  <CNNaffinity>  (17) 
3.8698489666

>  <CNN_VS>  (17) 
1.1901425123

>  <CNNaffinity_variance>  (17) 
0.1703285128

$$$$
18
     RDKit          3D

 43 45  0  0  0  0  0  0  0  0999 V2000
   16.8975   75.2273   -3.7005 P   0  0  2  0  0  0  0  0  0  0  0  0
   16.1108   76.1133   -4.8021 O   0  0  0  0  0  0  0  0  0  0  0  0
   16.9882   75.8462   -2.3367 O   0  0  0  0  0  0  0  0  0  0  0  0
   18.3098   74.8866   -4.4128 O   0  0  0  0  0  0  0  0  0  0  0  0
   18.3824   74.9336   -5.8272 C   0  0  0  0  0  0  0  0  0  0  0  0
   20.6615   75.2861   -5.1523 O   0  0  0  0  0  0  0  0  0  0  0  0
   21.2574   75.7251   -8.0580 O   0  0  0  0  0  0  0  0  0  0  0  0
   22.1058   73.1645   -7.6574 O   0  0  0  0  0  0  0  0  0  0  0  0
   20.3363   74.8193   -7.4528 C   0  0  1  0  0  0  0  0  0  0  0  0
   21.0773   73.6580   -6.8235 C   0  0  2  0  0  0  0  0  0  0  0  0
   19.7320   75.5081   -6.2355 C   0  0  1  0  0  0  0  0  0  0  0  0
   21.6100   74.2803   -5.5440 C   0  0  2  0  0  0  0  0  0  0  0  0
   21.6560   75.3074   -8.8381 H   0  0  0  0  0  0  0  0  0  0  0  0
   21.7164   72.7789   -8.4577 H   0  0  0  0  0  0  0  0  0  0  0  0
   23.9695   73.8669   -4.0475 O   0  0  0  0  0  0  0  0  0  0  0  0
   21.9923   70.5787   -1.4942 O   0  0  0  0  0  0  0  0  0  0  0  0
   21.7397   73.3228   -4.4820 N   0  0  0  0  0  0  0  0  0  0  0  0
   22.9830   72.2301   -2.7772 N   0  0  0  0  0  0  0  0  0  0  0  0
   22.9686   73.1934   -3.7941 C   0  0  0  0  0  0  0  0  0  0  0  0
   20.6557   72.5250   -4.1321 C   0  0  0  0  0  0  0  0  0  0  0  0
   20.6862   71.6101   -3.1609 C   0  0  0  0  0  0  0  0  0  0  0  0
   21.9324   71.4119   -2.3931 C   0  0  0  0  0  0  0  0  0  0  0  0
   23.8288   72.1220   -2.2845 H   0  0  0  0  0  0  0  0  0  0  0  0
   16.1167   73.8127   -3.7468 O   0  0  0  0  0  0  0  0  0  0  0  0
   16.5854   72.3268   -3.3161 P   0  0  2  0  0  0  0  0  0  0  0  0
   15.1860   71.5469   -3.0911 O   0  0  0  0  0  0  0  0  0  0  0  0
   17.5109   72.2918   -2.1345 O   0  0  0  0  0  0  0  0  0  0  0  0
   17.1977   71.6848   -4.6644 O   0  0  0  0  0  0  0  0  0  0  0  0
   15.5247   70.6112   -5.9548 O   0  0  0  0  0  0  0  0  0  0  0  0
   18.8678   69.3341   -8.0148 O   0  0  0  0  0  0  0  0  0  0  0  0
   17.1433   71.3051   -9.1933 O   0  0  0  0  0  0  0  0  0  0  0  0
   18.9395   69.5339   -5.1278 O   0  0  0  0  0  0  0  0  0  0  0  0
   18.0762   70.2538   -7.2580 C   0  0  1  0  0  0  0  0  0  0  0  0
   16.7943   70.5414   -8.0421 C   0  0  1  0  0  0  0  0  0  0  0  0
   17.7487   69.6321   -5.9017 C   0  0  2  0  0  0  0  0  0  0  0  0
   15.7783   71.3050   -7.1821 C   0  0  1  0  0  0  0  0  0  0  0  0
   16.6926   70.4432   -5.1488 C   0  0  1  0  0  0  0  0  0  0  0  0
   19.0796   69.7229   -8.8770 H   0  0  0  0  0  0  0  0  0  0  0  0
   17.7857   70.8120   -9.7275 H   0  0  0  0  0  0  0  0  0  0  0  0
   19.6000   69.0180   -5.6151 H   0  0  0  0  0  0  0  0  0  0  0  0
   14.3973   70.5725   -8.9891 O   0  0  0  0  0  0  0  0  0  0  0  0
   14.4347   71.4643   -7.8903 C   0  0  0  0  0  0  0  0  0  0  0  0
   13.5477   70.6626   -9.4492 H   0  0  0  0  0  0  0  0  0  0  0  0
 25 28  1  0
 25 24  1  0
 25 26  1  1
 25 27  2  0
  1  4  1  0
  1 24  1  0
  1  2  1  6
  1  3  2  0
  6 11  1  0
  6 12  1  0
 29 36  1  0
 29 37  1  0
  9  7  1  1
  7 13  1  0
 10  8  1  6
  8 14  1  0
 37 28  1  6
  4  5  1  0
 33 30  1  6
 30 38  1  0
 34 31  1  6
 31 39  1  0
 35 32  1  1
 32 40  1  0
 41 42  1  0
 41 43  1  0
 15 19  2  0
 16 22  2  0
 12 17  1  1
 17 19  1  0
 17 20  1  0
 18 19  1  0
 18 22  1  0
 18 23  1  0
  9 10  1  0
  9 11  1  0
 10 12  1  0
 11  5  1  1
 33 34  1  0
 33 35  1  0
 34 36  1  0
 35 37  1  0
 36 42  1  6
 20 21  2  0
 21 22  1  0
M  CHG  2   2  -1  26  -1
M  END
>  <COMPND>  (18) 
    8629 

>  <AUTHOR>  (18) 
    GENERATED BY OPEN BABEL 3.1.1

>  <MASTER>  (18) 
        0    0    0    0    0    0    0    0   58    0   58    0

>  <minimizedAffinity>  (18) 
-6.85402

>  <CNNscore>  (18) 
0.3058497310

>  <CNNaffinity>  (18) 
3.8287417889

>  <CNN_VS>  (18) 
1.1710196733

>  <CNNaffinity_variance>  (18) 
0.7278905511

$$$$
19
     RDKit          3D

 43 45  0  0  0  0  0  0  0  0999 V2000
   17.9782   71.9317   -3.2213 P   0  0  2  0  0  0  0  0  0  0  0  0
   17.6744   72.8463   -1.9219 O   0  0  0  0  0  0  0  0  0  0  0  0
   18.4737   70.5477   -2.9204 O   0  0  0  0  0  0  0  0  0  0  0  0
   18.9608   72.8495   -4.1213 O   0  0  0  0  0  0  0  0  0  0  0  0
   19.5138   74.0181   -3.5413 C   0  0  0  0  0  0  0  0  0  0  0  0
   21.5910   74.7195   -2.5580 O   0  0  0  0  0  0  0  0  0  0  0  0
   22.8656   72.5043   -4.1262 O   0  0  0  0  0  0  0  0  0  0  0  0
   22.6724   71.4289   -1.6276 O   0  0  0  0  0  0  0  0  0  0  0  0
   21.5864   72.5432   -3.4958 C   0  0  1  0  0  0  0  0  0  0  0  0
   21.7365   72.4223   -1.9937 C   0  0  2  0  0  0  0  0  0  0  0  0
   21.0313   73.9540   -3.6475 C   0  0  1  0  0  0  0  0  0  0  0  0
   22.1877   73.8210   -1.6085 C   0  0  2  0  0  0  0  0  0  0  0  0
   23.2401   71.6128   -4.0426 H   0  0  0  0  0  0  0  0  0  0  0  0
   22.3399   70.5575   -1.8937 H   0  0  0  0  0  0  0  0  0  0  0  0
   23.6028   73.1965    0.7548 O   0  0  0  0  0  0  0  0  0  0  0  0
   20.4620   75.2832    3.4048 O   0  0  0  0  0  0  0  0  0  0  0  0
   21.7628   74.1891   -0.2874 N   0  0  0  0  0  0  0  0  0  0  0  0
   22.0378   74.2362    2.0724 N   0  0  0  0  0  0  0  0  0  0  0  0
   22.5457   73.8259    0.8331 C   0  0  0  0  0  0  0  0  0  0  0  0
   20.5820   74.9027   -0.1129 C   0  0  0  0  0  0  0  0  0  0  0  0
   20.1109   75.2853    1.0758 C   0  0  0  0  0  0  0  0  0  0  0  0
   20.8688   74.9458    2.2973 C   0  0  0  0  0  0  0  0  0  0  0  0
   22.5663   73.9940    2.8673 H   0  0  0  0  0  0  0  0  0  0  0  0
   16.5836   71.9844   -4.0370 O   0  0  0  0  0  0  0  0  0  0  0  0
   15.8432   70.8721   -4.9466 P   0  0  2  0  0  0  0  0  0  0  0  0
   14.5594   71.6649   -5.5304 O   0  0  0  0  0  0  0  0  0  0  0  0
   15.5083   69.6037   -4.2165 O   0  0  0  0  0  0  0  0  0  0  0  0
   16.8140   70.6740   -6.2207 O   0  0  0  0  0  0  0  0  0  0  0  0
   17.9852   72.2697   -7.5240 O   0  0  0  0  0  0  0  0  0  0  0  0
   16.9394   69.6176  -10.5112 O   0  0  0  0  0  0  0  0  0  0  0  0
   19.6709   69.7624   -9.6361 O   0  0  0  0  0  0  0  0  0  0  0  0
   15.0765   70.1892   -8.3705 O   0  0  0  0  0  0  0  0  0  0  0  0
   17.3332   70.0052   -9.1921 C   0  0  1  0  0  0  0  0  0  0  0  0
   18.6801   70.7247   -9.2857 C   0  0  1  0  0  0  0  0  0  0  0  0
   16.2690   70.9305   -8.6050 C   0  0  2  0  0  0  0  0  0  0  0  0
   19.0398   71.4022   -7.9565 C   0  0  1  0  0  0  0  0  0  0  0  0
   16.7464   71.5904   -7.3102 C   0  0  1  0  0  0  0  0  0  0  0  0
   17.6106   69.0295  -10.8895 H   0  0  0  0  0  0  0  0  0  0  0  0
   19.4316   69.3416  -10.4768 H   0  0  0  0  0  0  0  0  0  0  0  0
   14.7844   69.7766   -9.1977 H   0  0  0  0  0  0  0  0  0  0  0  0
   20.4706   72.9731   -6.8637 O   0  0  0  0  0  0  0  0  0  0  0  0
   20.3005   72.2562   -8.0726 C   0  0  0  0  0  0  0  0  0  0  0  0
   21.2694   73.5208   -6.9230 H   0  0  0  0  0  0  0  0  0  0  0  0
 25 28  1  0
 25 24  1  0
 25 26  1  6
 25 27  2  0
  1  4  1  0
  1 24  1  0
  1  2  1  1
  1  3  2  0
  6 11  1  0
  6 12  1  0
 29 36  1  0
 29 37  1  0
  9  7  1  6
  7 13  1  0
 10  8  1  6
  8 14  1  0
 37 28  1  1
  4  5  1  0
 33 30  1  6
 30 38  1  0
 34 31  1  1
 31 39  1  0
 35 32  1  1
 32 40  1  0
 41 42  1  0
 41 43  1  0
 15 19  2  0
 16 22  2  0
 12 17  1  1
 17 19  1  0
 17 20  1  0
 18 19  1  0
 18 22  1  0
 18 23  1  0
  9 10  1  0
  9 11  1  0
 10 12  1  0
 11  5  1  1
 33 34  1  0
 33 35  1  0
 34 36  1  0
 35 37  1  0
 36 42  1  6
 20 21  2  0
 21 22  1  0
M  CHG  2   2  -1  26  -1
M  END
>  <COMPND>  (19) 
    8629 

>  <AUTHOR>  (19) 
    GENERATED BY OPEN BABEL 3.1.1

>  <MASTER>  (19) 
        0    0    0    0    0    0    0    0   58    0   58    0

>  <minimizedAffinity>  (19) 
-6.91111

>  <CNNscore>  (19) 
0.2881069779

>  <CNNaffinity>  (19) 
3.9529190063

>  <CNN_VS>  (19) 
1.1388635635

>  <CNNaffinity_variance>  (19) 
0.1613040268

$$$$
20
     RDKit          3D

 43 45  0  0  0  0  0  0  0  0999 V2000
   21.0197   73.5441   -6.6016 P   0  0  2  0  0  0  0  0  0  0  0  0
   22.0494   74.2606   -7.6233 O   0  0  0  0  0  0  0  0  0  0  0  0
   21.5858   73.2295   -5.2481 O   0  0  0  0  0  0  0  0  0  0  0  0
   20.4580   72.2792   -7.4396 O   0  0  0  0  0  0  0  0  0  0  0  0
   19.5454   72.5198   -8.4966 C   0  0  0  0  0  0  0  0  0  0  0  0
   19.1819   70.1825   -8.0740 O   0  0  0  0  0  0  0  0  0  0  0  0
   17.6024   70.1590  -10.6226 O   0  0  0  0  0  0  0  0  0  0  0  0
   15.6541   70.2499   -8.7167 O   0  0  0  0  0  0  0  0  0  0  0  0
   17.7040   71.1821   -9.6335 C   0  0  1  0  0  0  0  0  0  0  0  0
   16.9166   70.7989   -8.3979 C   0  0  2  0  0  0  0  0  0  0  0  0
   19.1347   71.1881   -9.1098 C   0  0  1  0  0  0  0  0  0  0  0  0
   17.8412   69.7923   -7.7347 C   0  0  2  0  0  0  0  0  0  0  0  0
   16.6973   70.1362  -10.9722 H   0  0  0  0  0  0  0  0  0  0  0  0
   15.1028   70.9287   -9.1362 H   0  0  0  0  0  0  0  0  0  0  0  0
   15.6881   68.6065   -6.3433 O   0  0  0  0  0  0  0  0  0  0  0  0
   17.4258   69.8192   -2.2505 O   0  0  0  0  0  0  0  0  0  0  0  0
   17.7059   69.7830   -6.3054 N   0  0  0  0  0  0  0  0  0  0  0  0
   16.5552   69.2112   -4.3066 N   0  0  0  0  0  0  0  0  0  0  0  0
   16.5857   69.1613   -5.7061 C   0  0  0  0  0  0  0  0  0  0  0  0
   18.6773   70.3856   -5.5134 C   0  0  0  0  0  0  0  0  0  0  0  0
   18.6327   70.4256   -4.1801 C   0  0  0  0  0  0  0  0  0  0  0  0
   17.4956   69.7991   -3.4755 C   0  0  0  0  0  0  0  0  0  0  0  0
   15.7839   68.7848   -3.8671 H   0  0  0  0  0  0  0  0  0  0  0  0
   19.7601   74.5571   -6.5851 O   0  0  0  0  0  0  0  0  0  0  0  0
   18.5082   74.6779   -5.5696 P   0  0  2  0  0  0  0  0  0  0  0  0
   18.3011   76.2758   -5.4243 O   0  0  0  0  0  0  0  0  0  0  0  0
   18.7010   73.9574   -4.2667 O   0  0  0  0  0  0  0  0  0  0  0  0
   17.2361   74.1784   -6.4283 O   0  0  0  0  0  0  0  0  0  0  0  0
   16.0740   75.4218   -8.0776 O   0  0  0  0  0  0  0  0  0  0  0  0
   12.9523   73.1150   -6.6689 O   0  0  0  0  0  0  0  0  0  0  0  0
   14.0667   72.5641   -9.2578 O   0  0  0  0  0  0  0  0  0  0  0  0
   14.9326   74.1453   -4.8259 O   0  0  0  0  0  0  0  0  0  0  0  0
   14.3086   73.3930   -7.0273 C   0  0  1  0  0  0  0  0  0  0  0  0
   14.3486   73.7470   -8.5152 C   0  0  1  0  0  0  0  0  0  0  0  0
   14.8190   74.5593   -6.1832 C   0  0  2  0  0  0  0  0  0  0  0  0
   15.7179   74.3141   -8.9131 C   0  0  1  0  0  0  0  0  0  0  0  0
   16.1642   75.0795   -6.6932 C   0  0  1  0  0  0  0  0  0  0  0  0
   12.6223   72.3751   -7.2009 H   0  0  0  0  0  0  0  0  0  0  0  0
   13.1996   72.2159   -8.9967 H   0  0  0  0  0  0  0  0  0  0  0  0
   14.0745   73.8185   -4.5148 H   0  0  0  0  0  0  0  0  0  0  0  0
   15.8443   73.7061  -11.2203 O   0  0  0  0  0  0  0  0  0  0  0  0
   15.7307   74.8200  -10.3539 C   0  0  0  0  0  0  0  0  0  0  0  0
   15.8533   74.0130  -12.1409 H   0  0  0  0  0  0  0  0  0  0  0  0
 25 28  1  0
 25 24  1  0
 25 26  1  1
 25 27  2  0
  1  4  1  0
  1 24  1  0
  1  2  1  6
  1  3  2  0
  6 11  1  0
  6 12  1  0
 29 36  1  0
 29 37  1  0
  9  7  1  6
  7 13  1  0
 10  8  1  6
  8 14  1  0
 37 28  1  6
  4  5  1  0
 33 30  1  1
 30 38  1  0
 34 31  1  6
 31 39  1  0
 35 32  1  1
 32 40  1  0
 41 42  1  0
 41 43  1  0
 15 19  2  0
 16 22  2  0
 12 17  1  1
 17 19  1  0
 17 20  1  0
 18 19  1  0
 18 22  1  0
 18 23  1  0
  9 10  1  0
  9 11  1  0
 10 12  1  0
 11  5  1  1
 33 34  1  0
 33 35  1  0
 34 36  1  0
 35 37  1  0
 36 42  1  6
 20 21  2  0
 21 22  1  0
M  CHG  2   2  -1  26  -1
M  END
>  <COMPND>  (20) 
    8629 

>  <AUTHOR>  (20) 
    GENERATED BY OPEN BABEL 3.1.1

>  <MASTER>  (20) 
        0    0    0    0    0    0    0    0   58    0   58    0

>  <minimizedAffinity>  (20) 
-6.72166

>  <CNNscore>  (20) 
0.2815949023

>  <CNNaffinity>  (20) 
3.8742327690

>  <CNN_VS>  (20) 
1.0909641981

>  <CNNaffinity_variance>  (20) 
0.6513885856

$$$$
21
     RDKit          3D

 43 45  0  0  0  0  0  0  0  0999 V2000
   18.8601   73.8330   -7.7957 P   0  0  2  0  0  0  0  0  0  0  0  0
   17.3698   73.5910   -7.2145 O   0  0  0  0  0  0  0  0  0  0  0  0
   19.1581   75.2447   -8.2077 O   0  0  0  0  0  0  0  0  0  0  0  0
   19.0105   72.7157   -8.9563 O   0  0  0  0  0  0  0  0  0  0  0  0
   19.7672   71.5503   -8.6789 C   0  0  0  0  0  0  0  0  0  0  0  0
   18.8472   69.4099   -8.0907 O   0  0  0  0  0  0  0  0  0  0  0  0
   17.2016   69.6407  -10.5866 O   0  0  0  0  0  0  0  0  0  0  0  0
   15.4247   70.3323   -8.6370 O   0  0  0  0  0  0  0  0  0  0  0  0
   17.6004   70.6599   -9.6715 C   0  0  1  0  0  0  0  0  0  0  0  0
   16.7973   70.5607   -8.3913 C   0  0  2  0  0  0  0  0  0  0  0  0
   19.0085   70.3332   -9.1898 C   0  0  1  0  0  0  0  0  0  0  0  0
   17.4678   69.3926   -7.6885 C   0  0  2  0  0  0  0  0  0  0  0  0
   16.3052   69.8279  -10.9083 H   0  0  0  0  0  0  0  0  0  0  0  0
   15.0436   71.1034   -9.0853 H   0  0  0  0  0  0  0  0  0  0  0  0
   15.1952   68.7297   -6.1477 O   0  0  0  0  0  0  0  0  0  0  0  0
   17.3125   69.8476   -2.2096 O   0  0  0  0  0  0  0  0  0  0  0  0
   17.3977   69.5004   -6.2585 N   0  0  0  0  0  0  0  0  0  0  0  0
   16.2514   69.2867   -4.1881 N   0  0  0  0  0  0  0  0  0  0  0  0
   16.2089   69.1429   -5.5807 C   0  0  0  0  0  0  0  0  0  0  0  0
   18.4997   69.9562   -5.5431 C   0  0  0  0  0  0  0  0  0  0  0  0
   18.5236   70.0889   -4.2153 C   0  0  0  0  0  0  0  0  0  0  0  0
   17.3220   69.7366   -3.4316 C   0  0  0  0  0  0  0  0  0  0  0  0
   15.4344   69.0439   -3.6948 H   0  0  0  0  0  0  0  0  0  0  0  0
   19.8072   73.2620   -6.6168 O   0  0  0  0  0  0  0  0  0  0  0  0
   21.2106   73.8046   -6.0260 P   0  0  2  0  0  0  0  0  0  0  0  0
   20.9029   75.3610   -5.7093 O   0  0  0  0  0  0  0  0  0  0  0  0
   22.3877   73.5774   -6.9297 O   0  0  0  0  0  0  0  0  0  0  0  0
   21.3382   73.1108   -4.5743 O   0  0  0  0  0  0  0  0  0  0  0  0
   23.3706   74.0377   -3.7826 O   0  0  0  0  0  0  0  0  0  0  0  0
   22.2060   72.0016   -0.3842 O   0  0  0  0  0  0  0  0  0  0  0  0
   22.0482   74.8686   -0.4435 O   0  0  0  0  0  0  0  0  0  0  0  0
   21.7590   70.8306   -2.9935 O   0  0  0  0  0  0  0  0  0  0  0  0
   22.0090   72.7635   -1.5784 C   0  0  1  0  0  0  0  0  0  0  0  0
   22.7406   74.0981   -1.4219 C   0  0  1  0  0  0  0  0  0  0  0  0
   22.5653   71.9816   -2.7669 C   0  0  2  0  0  0  0  0  0  0  0  0
   22.8007   74.8565   -2.7547 C   0  0  1  0  0  0  0  0  0  0  0  0
   22.6277   72.8424   -4.0299 C   0  0  1  0  0  0  0  0  0  0  0  0
   21.8545   72.4923    0.3742 H   0  0  0  0  0  0  0  0  0  0  0  0
   22.0168   74.3783    0.3931 H   0  0  0  0  0  0  0  0  0  0  0  0
   21.7277   70.2939   -2.1868 H   0  0  0  0  0  0  0  0  0  0  0  0
   22.8833   77.1476   -2.0817 O   0  0  0  0  0  0  0  0  0  0  0  0
   23.6609   76.1147   -2.6585 C   0  0  0  0  0  0  0  0  0  0  0  0
   23.4179   77.9546   -2.0139 H   0  0  0  0  0  0  0  0  0  0  0  0
 25 28  1  0
 25 24  1  0
 25 26  1  1
 25 27  2  0
  1  4  1  0
  1 24  1  0
  1  2  1  1
  1  3  2  0
  6 11  1  0
  6 12  1  0
 29 36  1  0
 29 37  1  0
  9  7  1  6
  7 13  1  0
 10  8  1  6
  8 14  1  0
 37 28  1  1
  4  5  1  0
 33 30  1  1
 30 38  1  0
 34 31  1  1
 31 39  1  0
 35 32  1  6
 32 40  1  0
 41 42  1  0
 41 43  1  0
 15 19  2  0
 16 22  2  0
 12 17  1  1
 17 19  1  0
 17 20  1  0
 18 19  1  0
 18 22  1  0
 18 23  1  0
  9 10  1  0
  9 11  1  0
 10 12  1  0
 11  5  1  1
 33 34  1  0
 33 35  1  0
 34 36  1  0
 35 37  1  0
 36 42  1  1
 20 21  2  0
 21 22  1  0
M  CHG  2   2  -1  26  -1
M  END
>  <COMPND>  (21) 
    8629 

>  <AUTHOR>  (21) 
    GENERATED BY OPEN BABEL 3.1.1

>  <MASTER>  (21) 
        0    0    0    0    0    0    0    0   58    0   58    0

>  <minimizedAffinity>  (21) 
-7.98837

>  <CNNscore>  (21) 
0.7245094776

>  <CNNaffinity>  (21) 
4.5578718185

>  <CNN_VS>  (21) 
3.3022212982

>  <CNNaffinity_variance>  (21) 
0.4012908041

$$$$
22
     RDKit          3D

 43 45  0  0  0  0  0  0  0  0999 V2000
   21.0916   71.1958   -2.1319 P   0  0  2  0  0  0  0  0  0  0  0  0
   21.7904   71.7926   -3.4634 O   0  0  0  0  0  0  0  0  0  0  0  0
   21.8968   70.1604   -1.4033 O   0  0  0  0  0  0  0  0  0  0  0  0
   19.6307   70.7207   -2.6396 O   0  0  0  0  0  0  0  0  0  0  0  0
   19.0832   71.3346   -3.7934 C   0  0  0  0  0  0  0  0  0  0  0  0
   17.0296   71.6314   -5.0052 O   0  0  0  0  0  0  0  0  0  0  0  0
   15.7294   70.0398   -2.8218 O   0  0  0  0  0  0  0  0  0  0  0  0
   16.0058   68.1994   -4.8150 O   0  0  0  0  0  0  0  0  0  0  0  0
   17.0262   69.8906   -3.3973 C   0  0  1  0  0  0  0  0  0  0  0  0
   16.9216   69.2749   -4.7770 C   0  0  2  0  0  0  0  0  0  0  0  0
   17.5639   71.2815   -3.7096 C   0  0  1  0  0  0  0  0  0  0  0  0
   16.4693   70.4578   -5.6164 C   0  0  2  0  0  0  0  0  0  0  0  0
   15.3656   69.1645   -2.6134 H   0  0  0  0  0  0  0  0  0  0  0  0
   16.3382   67.4720   -4.2661 H   0  0  0  0  0  0  0  0  0  0  0  0
   14.7749   70.2323   -7.8649 O   0  0  0  0  0  0  0  0  0  0  0  0
   18.3465   70.1422  -10.7764 O   0  0  0  0  0  0  0  0  0  0  0  0
   16.9296   70.3740   -6.9737 N   0  0  0  0  0  0  0  0  0  0  0  0
   16.5546   70.1878   -9.3128 N   0  0  0  0  0  0  0  0  0  0  0  0
   15.9961   70.2622   -8.0304 C   0  0  0  0  0  0  0  0  0  0  0  0
   18.2930   70.4033   -7.2462 C   0  0  0  0  0  0  0  0  0  0  0  0
   18.8095   70.3301   -8.4747 C   0  0  0  0  0  0  0  0  0  0  0  0
   17.9024   70.2116   -9.6345 C   0  0  0  0  0  0  0  0  0  0  0  0
   15.9234   70.1091  -10.0645 H   0  0  0  0  0  0  0  0  0  0  0  0
   20.7625   72.5222   -1.2685 O   0  0  0  0  0  0  0  0  0  0  0  0
   21.6885   73.3991   -0.2752 P   0  0  2  0  0  0  0  0  0  0  0  0
   23.1570   72.7472   -0.4649 O   0  0  0  0  0  0  0  0  0  0  0  0
   21.2053   73.4340    1.1458 O   0  0  0  0  0  0  0  0  0  0  0  0
   21.7903   74.8461   -0.9828 O   0  0  0  0  0  0  0  0  0  0  0  0
   20.2720   76.6590   -0.8257 O   0  0  0  0  0  0  0  0  0  0  0  0
   21.5630   77.2144   -4.7084 O   0  0  0  0  0  0  0  0  0  0  0  0
   22.4288   79.0245   -2.6536 O   0  0  0  0  0  0  0  0  0  0  0  0
   21.1430   74.5353   -3.6957 O   0  0  0  0  0  0  0  0  0  0  0  0
   21.6937   76.8516   -3.3312 C   0  0  1  0  0  0  0  0  0  0  0  0
   21.3749   78.0816   -2.4790 C   0  0  1  0  0  0  0  0  0  0  0  0
   20.7215   75.7152   -3.0200 C   0  0  2  0  0  0  0  0  0  0  0  0
   21.2328   77.7074   -0.9975 C   0  0  1  0  0  0  0  0  0  0  0  0
   20.6179   75.4566   -1.5158 C   0  0  1  0  0  0  0  0  0  0  0  0
   22.1780   77.9352   -4.9127 H   0  0  0  0  0  0  0  0  0  0  0  0
   22.5083   79.2520   -3.5934 H   0  0  0  0  0  0  0  0  0  0  0  0
   21.2044   74.7120   -4.6469 H   0  0  0  0  0  0  0  0  0  0  0  0
   20.1562   79.8404   -1.0078 O   0  0  0  0  0  0  0  0  0  0  0  0
   20.7606   78.8882   -0.1520 C   0  0  0  0  0  0  0  0  0  0  0  0
   19.8505   80.5975   -0.4834 H   0  0  0  0  0  0  0  0  0  0  0  0
 25 28  1  0
 25 24  1  0
 25 26  1  1
 25 27  2  0
  1  4  1  0
  1 24  1  0
  1  2  1  6
  1  3  2  0
  6 11  1  0
  6 12  1  0
 29 36  1  0
 29 37  1  0
  9  7  1  6
  7 13  1  0
 10  8  1  1
  8 14  1  0
 37 28  1  1
  4  5  1  0
 33 30  1  6
 30 38  1  0
 34 31  1  1
 31 39  1  0
 35 32  1  6
 32 40  1  0
 41 42  1  0
 41 43  1  0
 15 19  2  0
 16 22  2  0
 12 17  1  6
 17 19  1  0
 17 20  1  0
 18 19  1  0
 18 22  1  0
 18 23  1  0
  9 10  1  0
  9 11  1  0
 10 12  1  0
 11  5  1  6
 33 34  1  0
 33 35  1  0
 34 36  1  0
 35 37  1  0
 36 42  1  1
 20 21  2  0
 21 22  1  0
M  CHG  2   2  -1  26  -1
M  END
>  <COMPND>  (22) 
    8629 

>  <AUTHOR>  (22) 
    GENERATED BY OPEN BABEL 3.1.1

>  <MASTER>  (22) 
        0    0    0    0    0    0    0    0   58    0   58    0

>  <minimizedAffinity>  (22) 
-6.71182

>  <CNNscore>  (22) 
0.6699422598

>  <CNNaffinity>  (22) 
4.3582367897

>  <CNN_VS>  (22) 
2.9197669029

>  <CNNaffinity_variance>  (22) 
0.0539175980

$$$$
23
     RDKit          3D

 43 45  0  0  0  0  0  0  0  0999 V2000
   21.2758   71.0450   -2.0159 P   0  0  2  0  0  0  0  0  0  0  0  0
   22.0034   71.6844   -3.3117 O   0  0  0  0  0  0  0  0  0  0  0  0
   22.1155   70.0830   -1.2279 O   0  0  0  0  0  0  0  0  0  0  0  0
   19.8898   70.4508   -2.6023 O   0  0  0  0  0  0  0  0  0  0  0  0
   19.3375   71.0448   -3.7642 C   0  0  0  0  0  0  0  0  0  0  0  0
   17.2656   71.6429   -4.8241 O   0  0  0  0  0  0  0  0  0  0  0  0
   15.9113   70.2569   -2.5359 O   0  0  0  0  0  0  0  0  0  0  0  0
   15.7653   68.3989   -4.5267 O   0  0  0  0  0  0  0  0  0  0  0  0
   17.1257   69.9191   -3.2040 C   0  0  1  0  0  0  0  0  0  0  0  0
   16.8295   69.3277   -4.5664 C   0  0  2  0  0  0  0  0  0  0  0  0
   17.8374   71.2161   -3.5682 C   0  0  1  0  0  0  0  0  0  0  0  0
   16.4950   70.5655   -5.3812 C   0  0  2  0  0  0  0  0  0  0  0  0
   15.4392   69.4444   -2.2931 H   0  0  0  0  0  0  0  0  0  0  0  0
   16.0269   67.6297   -3.9969 H   0  0  0  0  0  0  0  0  0  0  0  0
   14.6139   70.4784   -7.4864 O   0  0  0  0  0  0  0  0  0  0  0  0
   17.9175   69.9909  -10.6629 O   0  0  0  0  0  0  0  0  0  0  0  0
   16.8359   70.4169   -6.7680 N   0  0  0  0  0  0  0  0  0  0  0  0
   16.2604   70.2359   -9.0663 N   0  0  0  0  0  0  0  0  0  0  0  0
   15.8152   70.3839   -7.7465 C   0  0  0  0  0  0  0  0  0  0  0  0
   18.1697   70.3062   -7.1457 C   0  0  0  0  0  0  0  0  0  0  0  0
   18.5775   70.1643   -8.4086 C   0  0  0  0  0  0  0  0  0  0  0  0
   17.5743   70.1205   -9.4919 C   0  0  0  0  0  0  0  0  0  0  0  0
   15.5669   70.2099   -9.7651 H   0  0  0  0  0  0  0  0  0  0  0  0
   20.7922   72.3481   -1.1906 O   0  0  0  0  0  0  0  0  0  0  0  0
   21.6373   73.4949   -0.4268 P   0  0  2  0  0  0  0  0  0  0  0  0
   23.0134   72.7410   -0.0324 O   0  0  0  0  0  0  0  0  0  0  0  0
   20.9184   74.1189    0.7341 O   0  0  0  0  0  0  0  0  0  0  0  0
   22.0597   74.5330   -1.5882 O   0  0  0  0  0  0  0  0  0  0  0  0
   24.0917   75.6790   -2.0060 O   0  0  0  0  0  0  0  0  0  0  0  0
   21.4284   78.6674   -3.0195 O   0  0  0  0  0  0  0  0  0  0  0  0
   22.8940   77.3137   -5.0853 O   0  0  0  0  0  0  0  0  0  0  0  0
   20.8690   76.9377   -0.7668 O   0  0  0  0  0  0  0  0  0  0  0  0
   21.8957   77.3200   -2.9118 C   0  0  1  0  0  0  0  0  0  0  0  0
   23.2024   77.2012   -3.6987 C   0  0  1  0  0  0  0  0  0  0  0  0
   22.1231   76.9868   -1.4385 C   0  0  2  0  0  0  0  0  0  0  0  0
   23.9014   75.8652   -3.4134 C   0  0  1  0  0  0  0  0  0  0  0  0
   22.8684   75.6619   -1.2675 C   0  0  1  0  0  0  0  0  0  0  0  0
   21.2815   78.8851   -3.9525 H   0  0  0  0  0  0  0  0  0  0  0  0
   22.4526   78.1614   -5.2518 H   0  0  0  0  0  0  0  0  0  0  0  0
   20.4072   77.7822   -0.8822 H   0  0  0  0  0  0  0  0  0  0  0  0
   25.6872   77.1035   -4.4065 O   0  0  0  0  0  0  0  0  0  0  0  0
   25.2811   75.7913   -4.0637 C   0  0  0  0  0  0  0  0  0  0  0  0
   26.5640   77.0720   -4.8212 H   0  0  0  0  0  0  0  0  0  0  0  0
 25 28  1  0
 25 24  1  0
 25 26  1  1
 25 27  2  0
  1  4  1  0
  1 24  1  0
  1  2  1  6
  1  3  2  0
  6 11  1  0
  6 12  1  0
 29 36  1  0
 29 37  1  0
  9  7  1  6
  7 13  1  0
 10  8  1  1
  8 14  1  0
 37 28  1  6
  4  5  1  0
 33 30  1  1
 30 38  1  0
 34 31  1  6
 31 39  1  0
 35 32  1  1
 32 40  1  0
 41 42  1  0
 41 43  1  0
 15 19  2  0
 16 22  2  0
 12 17  1  6
 17 19  1  0
 17 20  1  0
 18 19  1  0
 18 22  1  0
 18 23  1  0
  9 10  1  0
  9 11  1  0
 10 12  1  0
 11  5  1  6
 33 34  1  0
 33 35  1  0
 34 36  1  0
 35 37  1  0
 36 42  1  6
 20 21  2  0
 21 22  1  0
M  CHG  2   2  -1  26  -1
M  END
>  <COMPND>  (23) 
    8629 

>  <AUTHOR>  (23) 
    GENERATED BY OPEN BABEL 3.1.1

>  <MASTER>  (23) 
        0    0    0    0    0    0    0    0   58    0   58    0

>  <minimizedAffinity>  (23) 
-6.94043

>  <CNNscore>  (23) 
0.6644600630

>  <CNNaffinity>  (23) 
4.4874544144

>  <CNN_VS>  (23) 
2.9817342758

>  <CNNaffinity_variance>  (23) 
0.1018129811

$$$$
24
     RDKit          3D

 43 45  0  0  0  0  0  0  0  0999 V2000
   19.9561   71.9444   -2.5805 P   0  0  2  0  0  0  0  0  0  0  0  0
   20.6812   72.5866   -3.8764 O   0  0  0  0  0  0  0  0  0  0  0  0
   20.3148   70.5153   -2.2969 O   0  0  0  0  0  0  0  0  0  0  0  0
   18.3846   72.2383   -2.8293 O   0  0  0  0  0  0  0  0  0  0  0  0
   17.5598   71.1748   -3.2727 C   0  0  0  0  0  0  0  0  0  0  0  0
   16.2453   72.1842   -5.0126 O   0  0  0  0  0  0  0  0  0  0  0  0
   13.8434   71.3670   -3.4144 O   0  0  0  0  0  0  0  0  0  0  0  0
   13.9477   69.4513   -5.3524 O   0  0  0  0  0  0  0  0  0  0  0  0
   15.0837   70.6848   -3.5919 C   0  0  1  0  0  0  0  0  0  0  0  0
   15.1570   70.0791   -4.9781 C   0  0  2  0  0  0  0  0  0  0  0  0
   16.1912   71.7300   -3.6425 C   0  0  1  0  0  0  0  0  0  0  0  0
   15.4758   71.2922   -5.8354 C   0  0  2  0  0  0  0  0  0  0  0  0
   13.1209   70.7200   -3.3788 H   0  0  0  0  0  0  0  0  0  0  0  0
   13.7892   68.6860   -4.7780 H   0  0  0  0  0  0  0  0  0  0  0  0
   14.3612   70.4956   -8.3055 O   0  0  0  0  0  0  0  0  0  0  0  0
   18.5189   70.0136  -10.2348 O   0  0  0  0  0  0  0  0  0  0  0  0
   16.2438   70.9530   -7.0002 N   0  0  0  0  0  0  0  0  0  0  0  0
   16.4323   70.2564   -9.2642 N   0  0  0  0  0  0  0  0  0  0  0  0
   15.5866   70.5646   -8.1909 C   0  0  0  0  0  0  0  0  0  0  0  0
   17.6326   71.0077   -6.9546 C   0  0  0  0  0  0  0  0  0  0  0  0
   18.4247   70.7094   -7.9866 C   0  0  0  0  0  0  0  0  0  0  0  0
   17.8176   70.2944   -9.2677 C   0  0  0  0  0  0  0  0  0  0  0  0
   15.9967   69.9829  -10.1040 H   0  0  0  0  0  0  0  0  0  0  0  0
   20.3372   72.9807   -1.3999 O   0  0  0  0  0  0  0  0  0  0  0  0
   21.7352   73.2508   -0.6347 P   0  0  2  0  0  0  0  0  0  0  0  0
   22.4346   74.3994   -1.5342 O   0  0  0  0  0  0  0  0  0  0  0  0
   22.5753   72.0225   -0.4362 O   0  0  0  0  0  0  0  0  0  0  0  0
   21.3151   74.0017    0.7308 O   0  0  0  0  0  0  0  0  0  0  0  0
   21.1675   76.0794    1.8611 O   0  0  0  0  0  0  0  0  0  0  0  0
   24.1726   74.3290    4.0875 O   0  0  0  0  0  0  0  0  0  0  0  0
   21.5529   74.6254    5.2266 O   0  0  0  0  0  0  0  0  0  0  0  0
   24.0769   73.9270    1.2224 O   0  0  0  0  0  0  0  0  0  0  0  0
   22.9678   74.3547    3.3172 C   0  0  1  0  0  0  0  0  0  0  0  0
   21.9659   75.2694    4.0245 C   0  0  1  0  0  0  0  0  0  0  0  0
   23.2812   74.8808    1.9178 C   0  0  2  0  0  0  0  0  0  0  0  0
   20.7532   75.5593    3.1298 C   0  0  1  0  0  0  0  0  0  0  0  0
   22.0057   75.1830    1.1292 C   0  0  1  0  0  0  0  0  0  0  0  0
   23.9806   73.9954    4.9771 H   0  0  0  0  0  0  0  0  0  0  0  0
   22.3280   74.4474    5.7822 H   0  0  0  0  0  0  0  0  0  0  0  0
   24.8814   73.7444    1.7316 H   0  0  0  0  0  0  0  0  0  0  0  0
   19.0210   77.1544    2.7249 O   0  0  0  0  0  0  0  0  0  0  0  0
   19.8178   76.5938    3.7520 C   0  0  0  0  0  0  0  0  0  0  0  0
   18.4204   77.8144    3.1062 H   0  0  0  0  0  0  0  0  0  0  0  0
 25 28  1  0
 25 24  1  0
 25 26  1  6
 25 27  2  0
  1  4  1  0
  1 24  1  0
  1  2  1  6
  1  3  2  0
  6 11  1  0
  6 12  1  0
 29 36  1  0
 29 37  1  0
  9  7  1  6
  7 13  1  0
 10  8  1  6
  8 14  1  0
 37 28  1  1
  4  5  1  0
 33 30  1  1
 30 38  1  0
 34 31  1  1
 31 39  1  0
 35 32  1  6
 32 40  1  0
 41 42  1  0
 41 43  1  0
 15 19  2  0
 16 22  2  0
 12 17  1  6
 17 19  1  0
 17 20  1  0
 18 19  1  0
 18 22  1  0
 18 23  1  0
  9 10  1  0
  9 11  1  0
 10 12  1  0
 11  5  1  6
 33 34  1  0
 33 35  1  0
 34 36  1  0
 35 37  1  0
 36 42  1  1
 20 21  2  0
 21 22  1  0
M  CHG  2   2  -1  26  -1
M  END
>  <COMPND>  (24) 
    8629 

>  <AUTHOR>  (24) 
    GENERATED BY OPEN BABEL 3.1.1

>  <MASTER>  (24) 
        0    0    0    0    0    0    0    0   58    0   58    0

>  <minimizedAffinity>  (24) 
-7.23299

>  <CNNscore>  (24) 
0.6517931223

>  <CNNaffinity>  (24) 
4.4102239609

>  <CNN_VS>  (24) 
2.8745536804

>  <CNNaffinity_variance>  (24) 
0.0928221792

$$$$
25
     RDKit          3D

 43 45  0  0  0  0  0  0  0  0999 V2000
   19.8087   72.6186   -3.3825 P   0  0  2  0  0  0  0  0  0  0  0  0
   20.2875   74.1216   -3.7420 O   0  0  0  0  0  0  0  0  0  0  0  0
   20.1213   71.5871   -4.4264 O   0  0  0  0  0  0  0  0  0  0  0  0
   18.2436   72.7883   -3.0089 O   0  0  0  0  0  0  0  0  0  0  0  0
   17.3248   73.0591   -4.0531 C   0  0  0  0  0  0  0  0  0  0  0  0
   15.6445   71.8226   -5.2454 O   0  0  0  0  0  0  0  0  0  0  0  0
   15.2980   70.2294   -2.7290 O   0  0  0  0  0  0  0  0  0  0  0  0
   16.8296   68.5812   -4.2699 O   0  0  0  0  0  0  0  0  0  0  0  0
   16.4877   70.7805   -3.2913 C   0  0  1  0  0  0  0  0  0  0  0  0
   16.9228   69.9729   -4.4963 C   0  0  2  0  0  0  0  0  0  0  0  0
   16.1320   72.1223   -3.9192 C   0  0  1  0  0  0  0  0  0  0  0  0
   15.9580   70.4573   -5.5653 C   0  0  2  0  0  0  0  0  0  0  0  0
   15.5001   69.3719   -2.3217 H   0  0  0  0  0  0  0  0  0  0  0  0
   17.4626   68.3223   -3.5821 H   0  0  0  0  0  0  0  0  0  0  0  0
   14.4554   70.2611   -7.9489 O   0  0  0  0  0  0  0  0  0  0  0  0
   18.2534   70.2662  -10.5597 O   0  0  0  0  0  0  0  0  0  0  0  0
   16.5284   70.4059   -6.8818 N   0  0  0  0  0  0  0  0  0  0  0  0
   16.3477   70.2640   -9.2469 N   0  0  0  0  0  0  0  0  0  0  0  0
   15.6856   70.3065   -8.0133 C   0  0  0  0  0  0  0  0  0  0  0  0
   17.9090   70.4544   -7.0412 C   0  0  0  0  0  0  0  0  0  0  0  0
   18.5249   70.4115   -8.2245 C   0  0  0  0  0  0  0  0  0  0  0  0
   17.7169   70.3078   -9.4568 C   0  0  0  0  0  0  0  0  0  0  0  0
   15.7809   70.1944  -10.0492 H   0  0  0  0  0  0  0  0  0  0  0  0
   20.4984   72.3515   -1.9451 O   0  0  0  0  0  0  0  0  0  0  0  0
   21.9352   71.7201   -1.5580 P   0  0  2  0  0  0  0  0  0  0  0  0
   22.8603   72.0948   -2.8313 O   0  0  0  0  0  0  0  0  0  0  0  0
   21.8958   70.2554   -1.2308 O   0  0  0  0  0  0  0  0  0  0  0  0
   22.4852   72.6575   -0.3647 O   0  0  0  0  0  0  0  0  0  0  0  0
   21.7745   74.1608    1.3239 O   0  0  0  0  0  0  0  0  0  0  0  0
   24.2507   76.6857   -0.8078 O   0  0  0  0  0  0  0  0  0  0  0  0
   25.0873   75.7168    1.7630 O   0  0  0  0  0  0  0  0  0  0  0  0
   22.5899   74.7717   -2.2071 O   0  0  0  0  0  0  0  0  0  0  0  0
   23.8296   75.4370   -0.2521 C   0  0  1  0  0  0  0  0  0  0  0  0
   23.7571   75.5890    1.2686 C   0  0  1  0  0  0  0  0  0  0  0  0
   22.4597   75.0736   -0.8220 C   0  0  2  0  0  0  0  0  0  0  0  0
   23.0610   74.3828    1.9133 C   0  0  1  0  0  0  0  0  0  0  0  0
   21.8339   73.8924   -0.0784 C   0  0  1  0  0  0  0  0  0  0  0  0
   25.1201   76.9220   -0.4504 H   0  0  0  0  0  0  0  0  0  0  0  0
   25.5158   76.4817    1.3477 H   0  0  0  0  0  0  0  0  0  0  0  0
   22.9869   75.5273   -2.6667 H   0  0  0  0  0  0  0  0  0  0  0  0
   23.7473   73.7615    4.1160 O   0  0  0  0  0  0  0  0  0  0  0  0
   22.8369   74.5846    3.4103 C   0  0  0  0  0  0  0  0  0  0  0  0
   23.6165   73.8797    5.0702 H   0  0  0  0  0  0  0  0  0  0  0  0
 25 28  1  0
 25 24  1  0
 25 26  1  6
 25 27  2  0
  1  4  1  0
  1 24  1  0
  1  2  1  6
  1  3  2  0
  6 11  1  0
  6 12  1  0
 29 36  1  0
 29 37  1  0
  9  7  1  6
  7 13  1  0
 10  8  1  1
  8 14  1  0
 37 28  1  1
  4  5  1  0
 33 30  1  6
 30 38  1  0
 34 31  1  1
 31 39  1  0
 35 32  1  6
 32 40  1  0
 41 42  1  0
 41 43  1  0
 15 19  2  0
 16 22  2  0
 12 17  1  6
 17 19  1  0
 17 20  1  0
 18 19  1  0
 18 22  1  0
 18 23  1  0
  9 10  1  0
  9 11  1  0
 10 12  1  0
 11  5  1  6
 33 34  1  0
 33 35  1  0
 34 36  1  0
 35 37  1  0
 36 42  1  1
 20 21  2  0
 21 22  1  0
M  CHG  2   2  -1  26  -1
M  END
>  <COMPND>  (25) 
    8629 

>  <AUTHOR>  (25) 
    GENERATED BY OPEN BABEL 3.1.1

>  <MASTER>  (25) 
        0    0    0    0    0    0    0    0   58    0   58    0

>  <minimizedAffinity>  (25) 
-7.35693

>  <CNNscore>  (25) 
0.6339112520

>  <CNNaffinity>  (25) 
4.2823877335

>  <CNN_VS>  (25) 
2.7146537304

>  <CNNaffinity_variance>  (25) 
0.0688413233

$$$$
26
     RDKit          3D

 43 45  0  0  0  0  0  0  0  0999 V2000
   19.1509   73.6398   -7.7663 P   0  0  2  0  0  0  0  0  0  0  0  0
   18.0331   73.1316   -6.7129 O   0  0  0  0  0  0  0  0  0  0  0  0
   19.0045   75.0668   -8.2066 O   0  0  0  0  0  0  0  0  0  0  0  0
   19.1055   72.5326   -8.9452 O   0  0  0  0  0  0  0  0  0  0  0  0
   19.8398   71.3328   -8.7746 C   0  0  0  0  0  0  0  0  0  0  0  0
   18.8003   69.2525   -8.1700 O   0  0  0  0  0  0  0  0  0  0  0  0
   17.1366   69.5805  -10.6430 O   0  0  0  0  0  0  0  0  0  0  0  0
   15.4325   70.3800   -8.6698 O   0  0  0  0  0  0  0  0  0  0  0  0
   17.6093   70.5744   -9.7352 C   0  0  1  0  0  0  0  0  0  0  0  0
   16.8198   70.5251   -8.4438 C   0  0  2  0  0  0  0  0  0  0  0  0
   19.0016   70.1634   -9.2727 C   0  0  1  0  0  0  0  0  0  0  0  0
   17.4282   69.3190   -7.7484 C   0  0  2  0  0  0  0  0  0  0  0  0
   16.2488   69.8214  -10.9523 H   0  0  0  0  0  0  0  0  0  0  0  0
   15.0925   71.1723   -9.1140 H   0  0  0  0  0  0  0  0  0  0  0  0
   15.1287   68.8426   -6.1789 O   0  0  0  0  0  0  0  0  0  0  0  0
   17.3786   69.7847   -2.2685 O   0  0  0  0  0  0  0  0  0  0  0  0
   17.3849   69.4321   -6.3178 N   0  0  0  0  0  0  0  0  0  0  0  0
   16.2509   69.3119   -4.2331 N   0  0  0  0  0  0  0  0  0  0  0  0
   16.1795   69.1721   -5.6250 C   0  0  0  0  0  0  0  0  0  0  0  0
   18.5290   69.7968   -5.6165 C   0  0  0  0  0  0  0  0  0  0  0  0
   18.5802   69.9270   -4.2893 C   0  0  0  0  0  0  0  0  0  0  0  0
   17.3638   69.6733   -3.4904 C   0  0  0  0  0  0  0  0  0  0  0  0
   15.4231   69.1361   -3.7294 H   0  0  0  0  0  0  0  0  0  0  0  0
   20.5405   73.3083   -7.0098 O   0  0  0  0  0  0  0  0  0  0  0  0
   21.4164   74.1806   -5.9683 P   0  0  2  0  0  0  0  0  0  0  0  0
   21.4595   75.6449   -6.6549 O   0  0  0  0  0  0  0  0  0  0  0  0
   22.7667   73.5999   -5.6627 O   0  0  0  0  0  0  0  0  0  0  0  0
   20.4594   74.3619   -4.6813 O   0  0  0  0  0  0  0  0  0  0  0  0
   21.0732   72.7107   -3.0959 O   0  0  0  0  0  0  0  0  0  0  0  0
   17.8696   74.3841   -1.0991 O   0  0  0  0  0  0  0  0  0  0  0  0
   20.5396   74.8847   -0.1671 O   0  0  0  0  0  0  0  0  0  0  0  0
   17.7629   74.0449   -3.9719 O   0  0  0  0  0  0  0  0  0  0  0  0
   19.0215   74.3857   -1.9468 C   0  0  1  0  0  0  0  0  0  0  0  0
   20.2169   73.8874   -1.1323 C   0  0  1  0  0  0  0  0  0  0  0  0
   18.7640   73.4679   -3.1404 C   0  0  2  0  0  0  0  0  0  0  0  0
   21.4252   73.6078   -2.0362 C   0  0  1  0  0  0  0  0  0  0  0  0
   20.0406   73.2159   -3.9447 C   0  0  1  0  0  0  0  0  0  0  0  0
   18.0263   74.9654   -0.3394 H   0  0  0  0  0  0  0  0  0  0  0  0
   19.7681   75.0521    0.3968 H   0  0  0  0  0  0  0  0  0  0  0  0
   16.9598   74.1993   -3.4512 H   0  0  0  0  0  0  0  0  0  0  0  0
   22.0444   72.2924   -0.1401 O   0  0  0  0  0  0  0  0  0  0  0  0
   22.5764   72.9617   -1.2686 C   0  0  0  0  0  0  0  0  0  0  0  0
   22.7657   71.8760    0.3579 H   0  0  0  0  0  0  0  0  0  0  0  0
 25 28  1  0
 25 24  1  0
 25 26  1  6
 25 27  2  0
  1  4  1  0
  1 24  1  0
  1  2  1  1
  1  3  2  0
  6 11  1  0
  6 12  1  0
 29 36  1  0
 29 37  1  0
  9  7  1  6
  7 13  1  0
 10  8  1  6
  8 14  1  0
 37 28  1  1
  4  5  1  0
 33 30  1  1
 30 38  1  0
 34 31  1  1
 31 39  1  0
 35 32  1  6
 32 40  1  0
 41 42  1  0
 41 43  1  0
 15 19  2  0
 16 22  2  0
 12 17  1  1
 17 19  1  0
 17 20  1  0
 18 19  1  0
 18 22  1  0
 18 23  1  0
  9 10  1  0
  9 11  1  0
 10 12  1  0
 11  5  1  1
 33 34  1  0
 33 35  1  0
 34 36  1  0
 35 37  1  0
 36 42  1  1
 20 21  2  0
 21 22  1  0
M  CHG  2   2  -1  26  -1
M  END
>  <COMPND>  (26) 
    8629 

>  <AUTHOR>  (26) 
    GENERATED BY OPEN BABEL 3.1.1

>  <MASTER>  (26) 
        0    0    0    0    0    0    0    0   58    0   58    0

>  <minimizedAffinity>  (26) 
-7.65519

>  <CNNscore>  (26) 
0.5942611694

>  <CNNaffinity>  (26) 
4.3177909851

>  <CNN_VS>  (26) 
2.5658955574

>  <CNNaffinity_variance>  (26) 
0.5166332126

$$$$
27
     RDKit          3D

 43 45  0  0  0  0  0  0  0  0999 V2000
   20.3599   71.8813   -2.2018 P   0  0  2  0  0  0  0  0  0  0  0  0
   21.2213   70.6279   -1.6502 O   0  0  0  0  0  0  0  0  0  0  0  0
   20.1653   72.9982   -1.2188 O   0  0  0  0  0  0  0  0  0  0  0  0
   19.0060   71.2020   -2.7705 O   0  0  0  0  0  0  0  0  0  0  0  0
   18.3524   71.8138   -3.8688 C   0  0  0  0  0  0  0  0  0  0  0  0
   16.3699   71.5533   -5.2014 O   0  0  0  0  0  0  0  0  0  0  0  0
   15.3314   69.8245   -2.9825 O   0  0  0  0  0  0  0  0  0  0  0  0
   16.1557   67.9928   -4.8270 O   0  0  0  0  0  0  0  0  0  0  0  0
   16.6627   69.9519   -3.4793 C   0  0  1  0  0  0  0  0  0  0  0  0
   16.7939   69.2535   -4.8167 C   0  0  2  0  0  0  0  0  0  0  0  0
   16.8842   71.4107   -3.8592 C   0  0  1  0  0  0  0  0  0  0  0  0
   16.1371   70.2490   -5.7578 C   0  0  2  0  0  0  0  0  0  0  0  0
   15.1666   68.9012   -2.7329 H   0  0  0  0  0  0  0  0  0  0  0  0
   16.6101   67.3952   -4.2129 H   0  0  0  0  0  0  0  0  0  0  0  0
   14.6182   70.4171   -8.1332 O   0  0  0  0  0  0  0  0  0  0  0  0
   18.3748   70.0503  -10.7780 O   0  0  0  0  0  0  0  0  0  0  0  0
   16.6925   70.2005   -7.0809 N   0  0  0  0  0  0  0  0  0  0  0  0
   16.4899   70.2345   -9.4482 N   0  0  0  0  0  0  0  0  0  0  0  0
   15.8424   70.2924   -8.2075 C   0  0  0  0  0  0  0  0  0  0  0  0
   18.0659   70.0636   -7.2513 C   0  0  0  0  0  0  0  0  0  0  0  0
   18.6676   70.0088   -8.4413 C   0  0  0  0  0  0  0  0  0  0  0  0
   17.8512   70.0978   -9.6692 C   0  0  0  0  0  0  0  0  0  0  0  0
   15.9177   70.2962  -10.2473 H   0  0  0  0  0  0  0  0  0  0  0  0
   21.1495   72.3005   -3.5486 O   0  0  0  0  0  0  0  0  0  0  0  0
   21.7619   73.7195   -4.0220 P   0  0  2  0  0  0  0  0  0  0  0  0
   23.0678   73.2934   -4.8767 O   0  0  0  0  0  0  0  0  0  0  0  0
   22.0420   74.6746   -2.8981 O   0  0  0  0  0  0  0  0  0  0  0  0
   20.7164   74.2691   -5.1220 O   0  0  0  0  0  0  0  0  0  0  0  0
   19.6914   73.4096   -7.0783 O   0  0  0  0  0  0  0  0  0  0  0  0
   20.8455   77.1074   -8.5083 O   0  0  0  0  0  0  0  0  0  0  0  0
   18.0676   76.5892   -7.9957 O   0  0  0  0  0  0  0  0  0  0  0  0
   22.5776   75.6530   -6.7016 O   0  0  0  0  0  0  0  0  0  0  0  0
   20.3768   76.1780   -7.5275 C   0  0  1  0  0  0  0  0  0  0  0  0
   19.0647   75.5720   -8.0295 C   0  0  1  0  0  0  0  0  0  0  0  0
   21.4299   75.0897   -7.3277 C   0  0  2  0  0  0  0  0  0  0  0  0
   18.6394   74.3778   -7.1645 C   0  0  1  0  0  0  0  0  0  0  0  0
   20.8889   73.9264   -6.4946 C   0  0  1  0  0  0  0  0  0  0  0  0
   20.1816   77.8013   -8.6396 H   0  0  0  0  0  0  0  0  0  0  0  0
   18.3486   77.3376   -8.5455 H   0  0  0  0  0  0  0  0  0  0  0  0
   22.9107   76.3881   -7.2388 H   0  0  0  0  0  0  0  0  0  0  0  0
   16.3557   73.7704   -6.8113 O   0  0  0  0  0  0  0  0  0  0  0  0
   17.4194   73.6611   -7.7391 C   0  0  0  0  0  0  0  0  0  0  0  0
   15.5723   73.3190   -7.1638 H   0  0  0  0  0  0  0  0  0  0  0  0
 25 28  1  0
 25 24  1  0
 25 26  1  6
 25 27  2  0
  1  4  1  0
  1 24  1  0
  1  2  1  1
  1  3  2  0
  6 11  1  0
  6 12  1  0
 29 36  1  0
 29 37  1  0
  9  7  1  6
  7 13  1  0
 10  8  1  1
  8 14  1  0
 37 28  1  1
  4  5  1  0
 33 30  1  6
 30 38  1  0
 34 31  1  1
 31 39  1  0
 35 32  1  1
 32 40  1  0
 41 42  1  0
 41 43  1  0
 15 19  2  0
 16 22  2  0
 12 17  1  6
 17 19  1  0
 17 20  1  0
 18 19  1  0
 18 22  1  0
 18 23  1  0
  9 10  1  0
  9 11  1  0
 10 12  1  0
 11  5  1  6
 33 34  1  0
 33 35  1  0
 34 36  1  0
 35 37  1  0
 36 42  1  6
 20 21  2  0
 21 22  1  0
M  CHG  2   2  -1  26  -1
M  END
>  <COMPND>  (27) 
    8629 

>  <AUTHOR>  (27) 
    GENERATED BY OPEN BABEL 3.1.1

>  <MASTER>  (27) 
        0    0    0    0    0    0    0    0   58    0   58    0

>  <minimizedAffinity>  (27) 
-6.97224

>  <CNNscore>  (27) 
0.5725388527

>  <CNNaffinity>  (27) 
4.2061204910

>  <CNN_VS>  (27) 
2.4081673622

>  <CNNaffinity_variance>  (27) 
0.5043027401

$$$$
28
     RDKit          3D

 43 45  0  0  0  0  0  0  0  0999 V2000
   19.2463   70.6789   -3.4756 P   0  0  2  0  0  0  0  0  0  0  0  0
   19.3744   69.1523   -2.9555 O   0  0  0  0  0  0  0  0  0  0  0  0
   18.2091   71.5034   -2.7715 O   0  0  0  0  0  0  0  0  0  0  0  0
   19.0579   70.5296   -5.0756 O   0  0  0  0  0  0  0  0  0  0  0  0
   19.1961   71.6855   -5.8835 C   0  0  0  0  0  0  0  0  0  0  0  0
   18.1850   70.0891   -7.3677 O   0  0  0  0  0  0  0  0  0  0  0  0
   18.4585   72.1793   -9.5002 O   0  0  0  0  0  0  0  0  0  0  0  0
   15.8298   72.3814   -8.8034 O   0  0  0  0  0  0  0  0  0  0  0  0
   18.1609   72.3382   -8.1140 C   0  0  1  0  0  0  0  0  0  0  0  0
   16.7371   71.9077   -7.8292 C   0  0  2  0  0  0  0  0  0  0  0  0
   18.9671   71.3032   -7.3393 C   0  0  1  0  0  0  0  0  0  0  0  0
   16.8593   70.3934   -7.8313 C   0  0  2  0  0  0  0  0  0  0  0  0
   17.9554   72.8299  -10.0154 H   0  0  0  0  0  0  0  0  0  0  0  0
   15.7871   73.3495   -8.7622 H   0  0  0  0  0  0  0  0  0  0  0  0
   14.0663   70.4046   -8.2519 O   0  0  0  0  0  0  0  0  0  0  0  0
   13.2959   67.9540   -4.4254 O   0  0  0  0  0  0  0  0  0  0  0  0
   15.9055   69.7657   -6.9610 N   0  0  0  0  0  0  0  0  0  0  0  0
   13.6850   69.1842   -6.3464 N   0  0  0  0  0  0  0  0  0  0  0  0
   14.5250   69.8305   -7.2621 C   0  0  0  0  0  0  0  0  0  0  0  0
   16.3416   69.0949   -5.8236 C   0  0  0  0  0  0  0  0  0  0  0  0
   15.5275   68.4849   -4.9597 C   0  0  0  0  0  0  0  0  0  0  0  0
   14.0704   68.5056   -5.2011 C   0  0  0  0  0  0  0  0  0  0  0  0
   12.7191   69.2165   -6.5355 H   0  0  0  0  0  0  0  0  0  0  0  0
   20.7569   71.2376   -3.3382 O   0  0  0  0  0  0  0  0  0  0  0  0
   21.6825   71.4863   -2.0365 P   0  0  2  0  0  0  0  0  0  0  0  0
   23.0478   72.0885   -2.6616 O   0  0  0  0  0  0  0  0  0  0  0  0
   21.8779   70.2697   -1.1789 O   0  0  0  0  0  0  0  0  0  0  0  0
   20.9953   72.7351   -1.2792 O   0  0  0  0  0  0  0  0  0  0  0  0
   19.6278   74.4805   -2.1160 O   0  0  0  0  0  0  0  0  0  0  0  0
   21.7864   76.6170    0.6817 O   0  0  0  0  0  0  0  0  0  0  0  0
   19.0254   76.0070    1.1849 O   0  0  0  0  0  0  0  0  0  0  0  0
   23.0895   74.5610   -0.8848 O   0  0  0  0  0  0  0  0  0  0  0  0
   21.1150   75.4706    0.1520 C   0  0  1  0  0  0  0  0  0  0  0  0
   19.6494   75.8402   -0.0852 C   0  0  1  0  0  0  0  0  0  0  0  0
   21.7850   75.0609   -1.1582 C   0  0  2  0  0  0  0  0  0  0  0  0
   18.9287   74.7550   -0.8963 C   0  0  1  0  0  0  0  0  0  0  0  0
   20.9622   74.0129   -1.9097 C   0  0  1  0  0  0  0  0  0  0  0  0
   21.3661   76.8820    1.5140 H   0  0  0  0  0  0  0  0  0  0  0  0
   19.4903   76.6946    1.6872 H   0  0  0  0  0  0  0  0  0  0  0  0
   23.6004   75.2337   -0.4092 H   0  0  0  0  0  0  0  0  0  0  0  0
   16.6726   75.0068   -0.1509 O   0  0  0  0  0  0  0  0  0  0  0  0
   17.5110   75.1741   -1.2794 C   0  0  0  0  0  0  0  0  0  0  0  0
   15.7671   75.2700   -0.3799 H   0  0  0  0  0  0  0  0  0  0  0  0
 25 28  1  0
 25 24  1  0
 25 26  1  6
 25 27  2  0
  1  4  1  0
  1 24  1  0
  1  2  1  1
  1  3  2  0
  6 11  1  0
  6 12  1  0
 29 36  1  0
 29 37  1  0
  9  7  1  6
  7 13  1  0
 10  8  1  6
  8 14  1  0
 37 28  1  1
  4  5  1  0
 33 30  1  6
 30 38  1  0
 34 31  1  1
 31 39  1  0
 35 32  1  1
 32 40  1  0
 41 42  1  0
 41 43  1  0
 15 19  2  0
 16 22  2  0
 12 17  1  1
 17 19  1  0
 17 20  1  0
 18 19  1  0
 18 22  1  0
 18 23  1  0
  9 10  1  0
  9 11  1  0
 10 12  1  0
 11  5  1  1
 33 34  1  0
 33 35  1  0
 34 36  1  0
 35 37  1  0
 36 42  1  6
 20 21  2  0
 21 22  1  0
M  CHG  2   2  -1  26  -1
M  END
>  <COMPND>  (28) 
    8629 

>  <AUTHOR>  (28) 
    GENERATED BY OPEN BABEL 3.1.1

>  <MASTER>  (28) 
        0    0    0    0    0    0    0    0   58    0   58    0

>  <minimizedAffinity>  (28) 
-6.96227

>  <CNNscore>  (28) 
0.5582364202

>  <CNNaffinity>  (28) 
4.1057991982

>  <CNN_VS>  (28) 
2.2920067310

>  <CNNaffinity_variance>  (28) 
0.2674954236

$$$$
29
     RDKit          3D

 43 45  0  0  0  0  0  0  0  0999 V2000
   19.8359   71.8486   -2.6453 P   0  0  2  0  0  0  0  0  0  0  0  0
   20.2197   71.9454   -4.2140 O   0  0  0  0  0  0  0  0  0  0  0  0
   20.4633   70.7015   -1.9091 O   0  0  0  0  0  0  0  0  0  0  0  0
   18.2184   71.8877   -2.6380 O   0  0  0  0  0  0  0  0  0  0  0  0
   17.5451   72.2347   -3.8355 C   0  0  0  0  0  0  0  0  0  0  0  0
   15.7719   71.4620   -5.2612 O   0  0  0  0  0  0  0  0  0  0  0  0
   15.0143   69.6298   -3.0118 O   0  0  0  0  0  0  0  0  0  0  0  0
   16.3635   67.9691   -4.7024 O   0  0  0  0  0  0  0  0  0  0  0  0
   16.3103   70.0458   -3.4391 C   0  0  1  0  0  0  0  0  0  0  0  0
   16.6901   69.3437   -4.7261 C   0  0  2  0  0  0  0  0  0  0  0  0
   16.2130   71.4990   -3.8863 C   0  0  1  0  0  0  0  0  0  0  0  0
   15.8859   70.1180   -5.7566 C   0  0  2  0  0  0  0  0  0  0  0  0
   15.0513   68.7046   -2.7211 H   0  0  0  0  0  0  0  0  0  0  0  0
   16.9013   67.5204   -4.0314 H   0  0  0  0  0  0  0  0  0  0  0  0
   14.5240   70.4353   -8.2107 O   0  0  0  0  0  0  0  0  0  0  0  0
   18.4439   70.2138  -10.6245 O   0  0  0  0  0  0  0  0  0  0  0  0
   16.5258   70.1472   -7.0415 N   0  0  0  0  0  0  0  0  0  0  0  0
   16.4769   70.3249   -9.4106 N   0  0  0  0  0  0  0  0  0  0  0  0
   15.7504   70.3104   -8.2131 C   0  0  0  0  0  0  0  0  0  0  0  0
   17.9073   70.0154   -7.1308 C   0  0  0  0  0  0  0  0  0  0  0  0
   18.5848   70.0301   -8.2806 C   0  0  0  0  0  0  0  0  0  0  0  0
   17.8497   70.1964   -9.5510 C   0  0  0  0  0  0  0  0  0  0  0  0
   15.9577   70.4370  -10.2398 H   0  0  0  0  0  0  0  0  0  0  0  0
   20.2373   73.3096   -2.0821 O   0  0  0  0  0  0  0  0  0  0  0  0
   21.6290   74.1288   -2.1522 P   0  0  2  0  0  0  0  0  0  0  0  0
   22.7421   72.9602   -2.2660 O   0  0  0  0  0  0  0  0  0  0  0  0
   21.8426   75.0781   -1.0089 O   0  0  0  0  0  0  0  0  0  0  0  0
   21.6197   74.8261   -3.6078 O   0  0  0  0  0  0  0  0  0  0  0  0
   22.6180   73.8802   -5.5379 O   0  0  0  0  0  0  0  0  0  0  0  0
   22.8835   77.8752   -6.5481 O   0  0  0  0  0  0  0  0  0  0  0  0
   20.9826   76.1954   -7.8946 O   0  0  0  0  0  0  0  0  0  0  0  0
   23.3247   77.0458   -3.8100 O   0  0  0  0  0  0  0  0  0  0  0  0
   22.2862   76.7173   -5.9583 C   0  0  1  0  0  0  0  0  0  0  0  0
   22.0278   75.6941   -7.0660 C   0  0  1  0  0  0  0  0  0  0  0  0
   23.2371   76.1449   -4.9087 C   0  0  2  0  0  0  0  0  0  0  0  0
   21.6377   74.3303   -6.4803 C   0  0  1  0  0  0  0  0  0  0  0  0
   22.7835   74.7652   -4.4282 C   0  0  1  0  0  0  0  0  0  0  0  0
   22.2846   78.2438   -7.2151 H   0  0  0  0  0  0  0  0  0  0  0  0
   21.2414   77.0571   -8.2576 H   0  0  0  0  0  0  0  0  0  0  0  0
   23.6131   77.9153   -4.1273 H   0  0  0  0  0  0  0  0  0  0  0  0
   22.4849   73.5301   -8.5662 O   0  0  0  0  0  0  0  0  0  0  0  0
   21.5290   73.2546   -7.5589 C   0  0  0  0  0  0  0  0  0  0  0  0
   22.4275   72.8533   -9.2593 H   0  0  0  0  0  0  0  0  0  0  0  0
 25 28  1  0
 25 24  1  0
 25 26  1  6
 25 27  2  0
  1  4  1  0
  1 24  1  0
  1  2  1  6
  1  3  2  0
  6 11  1  0
  6 12  1  0
 29 36  1  0
 29 37  1  0
  9  7  1  6
  7 13  1  0
 10  8  1  1
  8 14  1  0
 37 28  1  6
  4  5  1  0
 33 30  1  6
 30 38  1  0
 34 31  1  6
 31 39  1  0
 35 32  1  1
 32 40  1  0
 41 42  1  0
 41 43  1  0
 15 19  2  0
 16 22  2  0
 12 17  1  6
 17 19  1  0
 17 20  1  0
 18 19  1  0
 18 22  1  0
 18 23  1  0
  9 10  1  0
  9 11  1  0
 10 12  1  0
 11  5  1  6
 33 34  1  0
 33 35  1  0
 34 36  1  0
 35 37  1  0
 36 42  1  6
 20 21  2  0
 21 22  1  0
M  CHG  2   2  -1  26  -1
M  END
>  <COMPND>  (29) 
    8629 

>  <AUTHOR>  (29) 
    GENERATED BY OPEN BABEL 3.1.1

>  <MASTER>  (29) 
        0    0    0    0    0    0    0    0   58    0   58    0

>  <minimizedAffinity>  (29) 
-7.11206

>  <CNNscore>  (29) 
0.5274170637

>  <CNNaffinity>  (29) 
4.1670250893

>  <CNN_VS>  (29) 
2.1977601051

>  <CNNaffinity_variance>  (29) 
0.4078560770

$$$$
30
     RDKit          3D

 43 45  0  0  0  0  0  0  0  0999 V2000
   19.5671   72.9983   -2.8639 P   0  0  2  0  0  0  0  0  0  0  0  0
   18.1182   73.1554   -2.1615 O   0  0  0  0  0  0  0  0  0  0  0  0
   20.0461   74.2108   -3.6068 O   0  0  0  0  0  0  0  0  0  0  0  0
   19.4288   71.6459   -3.7413 O   0  0  0  0  0  0  0  0  0  0  0  0
   19.0685   71.7598   -5.1069 C   0  0  0  0  0  0  0  0  0  0  0  0
   18.0501   69.6141   -4.7428 O   0  0  0  0  0  0  0  0  0  0  0  0
   18.3838   69.1647   -7.6886 O   0  0  0  0  0  0  0  0  0  0  0  0
   15.7502   69.8426   -7.4853 O   0  0  0  0  0  0  0  0  0  0  0  0
   18.0716   70.3683   -6.9892 C   0  0  1  0  0  0  0  0  0  0  0  0
   16.6377   70.3372   -6.5031 C   0  0  2  0  0  0  0  0  0  0  0  0
   18.8514   70.3661   -5.6803 C   0  0  1  0  0  0  0  0  0  0  0  0
   16.7354   69.4259   -5.2915 C   0  0  2  0  0  0  0  0  0  0  0  0
   17.8977   69.1435   -8.5284 H   0  0  0  0  0  0  0  0  0  0  0  0
   15.7228   70.4571   -8.2353 H   0  0  0  0  0  0  0  0  0  0  0  0
   14.1711   68.2534   -5.1268 O   0  0  0  0  0  0  0  0  0  0  0  0
   13.0791   70.7264   -1.3941 O   0  0  0  0  0  0  0  0  0  0  0  0
   15.7608   69.7446   -4.2865 N   0  0  0  0  0  0  0  0  0  0  0  0
   13.6295   69.4856   -3.2683 N   0  0  0  0  0  0  0  0  0  0  0  0
   14.5023   69.0993   -4.2935 C   0  0  0  0  0  0  0  0  0  0  0  0
   16.0571   70.6872   -3.3079 C   0  0  0  0  0  0  0  0  0  0  0  0
   15.2133   71.0454   -2.3379 C   0  0  0  0  0  0  0  0  0  0  0  0
   13.8774   70.4184   -2.2737 C   0  0  0  0  0  0  0  0  0  0  0  0
   12.7467   69.0495   -3.2533 H   0  0  0  0  0  0  0  0  0  0  0  0
   20.5173   72.5410   -1.6387 O   0  0  0  0  0  0  0  0  0  0  0  0
   21.9787   71.8503   -1.6294 P   0  0  2  0  0  0  0  0  0  0  0  0
   22.5446   72.1593   -3.1133 O   0  0  0  0  0  0  0  0  0  0  0  0
   21.9692   70.3950   -1.2609 O   0  0  0  0  0  0  0  0  0  0  0  0
   22.8645   72.7817   -0.6532 O   0  0  0  0  0  0  0  0  0  0  0  0
   22.5914   74.1301    1.2765 O   0  0  0  0  0  0  0  0  0  0  0  0
   24.4642   76.8684   -1.1823 O   0  0  0  0  0  0  0  0  0  0  0  0
   25.9095   75.7148    1.0150 O   0  0  0  0  0  0  0  0  0  0  0  0
   22.5105   75.0382   -2.2836 O   0  0  0  0  0  0  0  0  0  0  0  0
   24.1937   75.5708   -0.6452 C   0  0  1  0  0  0  0  0  0  0  0  0
   24.4985   75.5992    0.8538 C   0  0  1  0  0  0  0  0  0  0  0  0
   22.7258   75.2257   -0.8890 C   0  0  2  0  0  0  0  0  0  0  0  0
   23.9834   74.3311    1.5479 C   0  0  1  0  0  0  0  0  0  0  0  0
   22.3033   73.9760   -0.1146 C   0  0  1  0  0  0  0  0  0  0  0  0
   25.3948   77.0935   -1.0312 H   0  0  0  0  0  0  0  0  0  0  0  0
   26.2220   76.5192    0.5718 H   0  0  0  0  0  0  0  0  0  0  0  0
   22.7816   75.8362   -2.7627 H   0  0  0  0  0  0  0  0  0  0  0  0
   25.5160   74.4252    3.3786 O   0  0  0  0  0  0  0  0  0  0  0  0
   24.1354   74.4079    3.0655 C   0  0  0  0  0  0  0  0  0  0  0  0
   25.6280   74.4742    4.3413 H   0  0  0  0  0  0  0  0  0  0  0  0
 25 28  1  0
 25 24  1  0
 25 26  1  6
 25 27  2  0
  1  4  1  0
  1 24  1  0
  1  2  1  1
  1  3  2  0
  6 11  1  0
  6 12  1  0
 29 36  1  0
 29 37  1  0
  9  7  1  6
  7 13  1  0
 10  8  1  6
  8 14  1  0
 37 28  1  6
  4  5  1  0
 33 30  1  1
 30 38  1  0
 34 31  1  6
 31 39  1  0
 35 32  1  6
 32 40  1  0
 41 42  1  0
 41 43  1  0
 15 19  2  0
 16 22  2  0
 12 17  1  1
 17 19  1  0
 17 20  1  0
 18 19  1  0
 18 22  1  0
 18 23  1  0
  9 10  1  0
  9 11  1  0
 10 12  1  0
 11  5  1  1
 33 34  1  0
 33 35  1  0
 34 36  1  0
 35 37  1  0
 36 42  1  1
 20 21  2  0
 21 22  1  0
M  CHG  2   2  -1  26  -1
M  END
>  <COMPND>  (30) 
    8629 

>  <AUTHOR>  (30) 
    GENERATED BY OPEN BABEL 3.1.1

>  <MASTER>  (30) 
        0    0    0    0    0    0    0    0   58    0   58    0

>  <minimizedAffinity>  (30) 
-6.82999

>  <CNNscore>  (30) 
0.5081131458

>  <CNNaffinity>  (30) 
4.0308065414

>  <CNN_VS>  (30) 
2.0481057167

>  <CNNaffinity_variance>  (30) 
0.1755844206

$$$$
31
     RDKit          3D

 43 45  0  0  0  0  0  0  0  0999 V2000
   20.7715   73.5596   -6.2366 P   0  0  2  0  0  0  0  0  0  0  0  0
   20.3275   74.8496   -7.1062 O   0  0  0  0  0  0  0  0  0  0  0  0
   22.2444   73.4502   -5.9718 O   0  0  0  0  0  0  0  0  0  0  0  0
   20.1045   72.3128   -7.0230 O   0  0  0  0  0  0  0  0  0  0  0  0
   19.5507   72.5416   -8.3071 C   0  0  0  0  0  0  0  0  0  0  0  0
   18.9051   70.2792   -7.8189 O   0  0  0  0  0  0  0  0  0  0  0  0
   17.7424   70.2128  -10.5820 O   0  0  0  0  0  0  0  0  0  0  0  0
   15.5413   70.6028   -9.0201 O   0  0  0  0  0  0  0  0  0  0  0  0
   17.7874   71.2900   -9.6478 C   0  0  1  0  0  0  0  0  0  0  0  0
   16.7860   71.0628   -8.5346 C   0  0  2  0  0  0  0  0  0  0  0  0
   19.1143   71.2103   -8.9032 C   0  0  1  0  0  0  0  0  0  0  0  0
   17.4971   70.0296   -7.6772 C   0  0  2  0  0  0  0  0  0  0  0  0
   16.9040   70.2430  -11.0700 H   0  0  0  0  0  0  0  0  0  0  0  0
   15.1285   71.2953   -9.5594 H   0  0  0  0  0  0  0  0  0  0  0  0
   16.9797   72.4618   -6.3375 O   0  0  0  0  0  0  0  0  0  0  0  0
   16.1480   70.3014   -2.3522 O   0  0  0  0  0  0  0  0  0  0  0  0
   17.1428   70.1319   -6.2896 N   0  0  0  0  0  0  0  0  0  0  0  0
   16.5658   71.3841   -4.3542 N   0  0  0  0  0  0  0  0  0  0  0  0
   16.9044   71.4014   -5.7133 C   0  0  0  0  0  0  0  0  0  0  0  0
   17.0344   68.9818   -5.5155 C   0  0  0  0  0  0  0  0  0  0  0  0
   16.7118   68.9824   -4.2204 C   0  0  0  0  0  0  0  0  0  0  0  0
   16.4468   70.2675   -3.5419 C   0  0  0  0  0  0  0  0  0  0  0  0
   16.3957   72.2570   -3.9313 H   0  0  0  0  0  0  0  0  0  0  0  0
   19.8568   73.6835   -4.9096 O   0  0  0  0  0  0  0  0  0  0  0  0
   19.9856   72.9766   -3.4617 P   0  0  2  0  0  0  0  0  0  0  0  0
   20.7518   71.5905   -3.7924 O   0  0  0  0  0  0  0  0  0  0  0  0
   18.6792   72.8055   -2.7420 O   0  0  0  0  0  0  0  0  0  0  0  0
   21.0748   73.8653   -2.6687 O   0  0  0  0  0  0  0  0  0  0  0  0
   23.3636   74.3912   -2.9868 O   0  0  0  0  0  0  0  0  0  0  0  0
   23.4304   73.5760    1.0606 O   0  0  0  0  0  0  0  0  0  0  0  0
   23.6814   76.2903    0.1566 O   0  0  0  0  0  0  0  0  0  0  0  0
   21.7763   71.9869   -0.7053 O   0  0  0  0  0  0  0  0  0  0  0  0
   22.8692   74.0632   -0.1613 C   0  0  1  0  0  0  0  0  0  0  0  0
   23.7855   75.1608   -0.7058 C   0  0  1  0  0  0  0  0  0  0  0  0
   22.7622   72.9094   -1.1565 C   0  0  2  0  0  0  0  0  0  0  0  0
   23.3972   75.5458   -2.1397 C   0  0  1  0  0  0  0  0  0  0  0  0
   22.4197   73.4059   -2.5623 C   0  0  1  0  0  0  0  0  0  0  0  0
   23.5006   74.3036    1.6971 H   0  0  0  0  0  0  0  0  0  0  0  0
   23.9288   76.0336    1.0589 H   0  0  0  0  0  0  0  0  0  0  0  0
   22.0046   71.6798    0.1854 H   0  0  0  0  0  0  0  0  0  0  0  0
   25.6580   76.3187   -2.1574 O   0  0  0  0  0  0  0  0  0  0  0  0
   24.3929   76.5243   -2.7587 C   0  0  0  0  0  0  0  0  0  0  0  0
   26.3020   76.9345   -2.5418 H   0  0  0  0  0  0  0  0  0  0  0  0
 25 28  1  0
 25 24  1  0
 25 26  1  6
 25 27  2  0
  1  4  1  0
  1 24  1  0
  1  2  1  6
  1  3  2  0
  6 11  1  0
  6 12  1  0
 29 36  1  0
 29 37  1  0
  9  7  1  6
  7 13  1  0
 10  8  1  6
  8 14  1  0
 37 28  1  1
  4  5  1  0
 33 30  1  1
 30 38  1  0
 34 31  1  1
 31 39  1  0
 35 32  1  1
 32 40  1  0
 41 42  1  0
 41 43  1  0
 15 19  2  0
 16 22  2  0
 12 17  1  1
 17 19  1  0
 17 20  1  0
 18 19  1  0
 18 22  1  0
 18 23  1  0
  9 10  1  0
  9 11  1  0
 10 12  1  0
 11  5  1  1
 33 34  1  0
 33 35  1  0
 34 36  1  0
 35 37  1  0
 36 42  1  6
 20 21  2  0
 21 22  1  0
M  CHG  2   2  -1  26  -1
M  END
>  <COMPND>  (31) 
    8629 

>  <AUTHOR>  (31) 
    GENERATED BY OPEN BABEL 3.1.1

>  <MASTER>  (31) 
        0    0    0    0    0    0    0    0   58    0   58    0

>  <minimizedAffinity>  (31) 
-7.11771

>  <CNNscore>  (31) 
0.4957580864

>  <CNNaffinity>  (31) 
4.2620377541

>  <CNN_VS>  (31) 
2.1129395962

>  <CNNaffinity_variance>  (31) 
0.3815546632

$$$$
32
     RDKit          3D

 43 45  0  0  0  0  0  0  0  0999 V2000
   16.2604   70.1604   -3.9023 P   0  0  2  0  0  0  0  0  0  0  0  0
   16.8082   68.6483   -4.0785 O   0  0  0  0  0  0  0  0  0  0  0  0
   14.9858   70.2857   -3.1206 O   0  0  0  0  0  0  0  0  0  0  0  0
   16.2173   70.7364   -5.4137 O   0  0  0  0  0  0  0  0  0  0  0  0
   15.5648   71.9723   -5.6478 C   0  0  0  0  0  0  0  0  0  0  0  0
   16.1427   72.9020   -7.7869 O   0  0  0  0  0  0  0  0  0  0  0  0
   14.3753   70.7900   -8.9729 O   0  0  0  0  0  0  0  0  0  0  0  0
   16.8712   69.7597   -9.3548 O   0  0  0  0  0  0  0  0  0  0  0  0
   15.2318   70.7148   -7.8344 C   0  0  1  0  0  0  0  0  0  0  0  0
   16.6806   70.6450   -8.2700 C   0  0  2  0  0  0  0  0  0  0  0  0
   15.1794   72.0586   -7.1183 C   0  0  1  0  0  0  0  0  0  0  0  0
   16.9691   72.0907   -8.6375 C   0  0  2  0  0  0  0  0  0  0  0  0
   14.3920   69.9429   -9.4463 H   0  0  0  0  0  0  0  0  0  0  0  0
   16.6753   68.8533   -9.0708 H   0  0  0  0  0  0  0  0  0  0  0  0
   19.1327   71.0369  -10.1162 O   0  0  0  0  0  0  0  0  0  0  0  0
   22.2035   73.5223   -7.7426 O   0  0  0  0  0  0  0  0  0  0  0  0
   18.3444   72.4452   -8.4273 N   0  0  0  0  0  0  0  0  0  0  0  0
   20.6599   72.2755   -8.9333 N   0  0  0  0  0  0  0  0  0  0  0  0
   19.3549   71.8576   -9.2236 C   0  0  0  0  0  0  0  0  0  0  0  0
   18.6796   73.3663   -7.4408 C   0  0  0  0  0  0  0  0  0  0  0  0
   19.9291   73.7532   -7.1756 C   0  0  0  0  0  0  0  0  0  0  0  0
   21.0437   73.1869   -7.9623 C   0  0  0  0  0  0  0  0  0  0  0  0
   21.3804   71.8791   -9.4751 H   0  0  0  0  0  0  0  0  0  0  0  0
   17.5250   70.9320   -3.2554 O   0  0  0  0  0  0  0  0  0  0  0  0
   18.8308   71.5920   -3.9426 P   0  0  2  0  0  0  0  0  0  0  0  0
   18.4252   73.1514   -4.0883 O   0  0  0  0  0  0  0  0  0  0  0  0
   19.2467   70.9376   -5.2281 O   0  0  0  0  0  0  0  0  0  0  0  0
   19.9563   71.5698   -2.7860 O   0  0  0  0  0  0  0  0  0  0  0  0
   21.7193   72.6197   -3.9719 O   0  0  0  0  0  0  0  0  0  0  0  0
   23.3505   72.6754   -0.1788 O   0  0  0  0  0  0  0  0  0  0  0  0
   22.4046   75.1204   -1.3516 O   0  0  0  0  0  0  0  0  0  0  0  0
   21.8218   70.3804   -1.0596 O   0  0  0  0  0  0  0  0  0  0  0  0
   22.2989   72.7397   -1.1460 C   0  0  1  0  0  0  0  0  0  0  0  0
   22.5832   73.9127   -2.0863 C   0  0  1  0  0  0  0  0  0  0  0  0
   22.2548   71.4257   -1.9236 C   0  0  2  0  0  0  0  0  0  0  0  0
   21.6500   73.8851   -3.3043 C   0  0  1  0  0  0  0  0  0  0  0  0
   21.3354   71.5212   -3.1425 C   0  0  1  0  0  0  0  0  0  0  0  0
   23.3835   73.5066    0.3187 H   0  0  0  0  0  0  0  0  0  0  0  0
   22.9992   75.1249   -0.5850 H   0  0  0  0  0  0  0  0  0  0  0  0
   22.4120   70.3300   -0.2922 H   0  0  0  0  0  0  0  0  0  0  0  0
   23.1328   74.4934   -5.0763 O   0  0  0  0  0  0  0  0  0  0  0  0
   22.0194   74.9525   -4.3321 C   0  0  0  0  0  0  0  0  0  0  0  0
   23.3789   75.1625   -5.7347 H   0  0  0  0  0  0  0  0  0  0  0  0
 25 28  1  0
 25 24  1  0
 25 26  1  6
 25 27  2  0
  1  4  1  0
  1 24  1  0
  1  2  1  6
  1  3  2  0
  6 11  1  0
  6 12  1  0
 29 36  1  0
 29 37  1  0
  9  7  1  6
  7 13  1  0
 10  8  1  6
  8 14  1  0
 37 28  1  1
  4  5  1  0
 33 30  1  1
 30 38  1  0
 34 31  1  1
 31 39  1  0
 35 32  1  1
 32 40  1  0
 41 42  1  0
 41 43  1  0
 15 19  2  0
 16 22  2  0
 12 17  1  1
 17 19  1  0
 17 20  1  0
 18 19  1  0
 18 22  1  0
 18 23  1  0
  9 10  1  0
  9 11  1  0
 10 12  1  0
 11  5  1  1
 33 34  1  0
 33 35  1  0
 34 36  1  0
 35 37  1  0
 36 42  1  6
 20 21  2  0
 21 22  1  0
M  CHG  2   2  -1  26  -1
M  END
>  <COMPND>  (32) 
    8629 

>  <AUTHOR>  (32) 
    GENERATED BY OPEN BABEL 3.1.1

>  <MASTER>  (32) 
        0    0    0    0    0    0    0    0   58    0   58    0

>  <minimizedAffinity>  (32) 
-7.93624

>  <CNNscore>  (32) 
0.4633454382

>  <CNNaffinity>  (32) 
4.1775870323

>  <CNN_VS>  (32) 
1.9356658459

>  <CNNaffinity_variance>  (32) 
0.4832369387

$$$$
33
     RDKit          3D

 43 45  0  0  0  0  0  0  0  0999 V2000
   21.4828   71.5276   -2.1465 P   0  0  2  0  0  0  0  0  0  0  0  0
   22.8401   72.2861   -2.5934 O   0  0  0  0  0  0  0  0  0  0  0  0
   21.6887   70.1936   -1.4912 O   0  0  0  0  0  0  0  0  0  0  0  0
   20.5822   71.5186   -3.4906 O   0  0  0  0  0  0  0  0  0  0  0  0
   19.6778   70.4464   -3.6914 C   0  0  0  0  0  0  0  0  0  0  0  0
   17.7591   71.5292   -4.6505 O   0  0  0  0  0  0  0  0  0  0  0  0
   16.2024   70.3903   -2.3547 O   0  0  0  0  0  0  0  0  0  0  0  0
   15.5838   68.6892   -4.3944 O   0  0  0  0  0  0  0  0  0  0  0  0
   17.2895   69.8179   -3.0799 C   0  0  1  0  0  0  0  0  0  0  0  0
   16.8264   69.3600   -4.4472 C   0  0  2  0  0  0  0  0  0  0  0  0
   18.2605   70.9381   -3.4316 C   0  0  1  0  0  0  0  0  0  0  0  0
   16.7508   70.6717   -5.2099 C   0  0  2  0  0  0  0  0  0  0  0  0
   15.5690   69.6938   -2.1187 H   0  0  0  0  0  0  0  0  0  0  0  0
   15.6839   67.8613   -3.8992 H   0  0  0  0  0  0  0  0  0  0  0  0
   15.3326   72.0009   -7.2592 O   0  0  0  0  0  0  0  0  0  0  0  0
   17.8168   69.9538  -10.5575 O   0  0  0  0  0  0  0  0  0  0  0  0
   17.0064   70.5051   -6.6128 N   0  0  0  0  0  0  0  0  0  0  0  0
   16.5708   70.9807   -8.8998 N   0  0  0  0  0  0  0  0  0  0  0  0
   16.2363   71.2186   -7.5606 C   0  0  0  0  0  0  0  0  0  0  0  0
   18.0113   69.6421   -7.0364 C   0  0  0  0  0  0  0  0  0  0  0  0
   18.3168   69.4253   -8.3174 C   0  0  0  0  0  0  0  0  0  0  0  0
   17.5599   70.1318   -9.3709 C   0  0  0  0  0  0  0  0  0  0  0  0
   16.0474   71.4666   -9.5779 H   0  0  0  0  0  0  0  0  0  0  0  0
   20.7414   72.6250   -1.2197 O   0  0  0  0  0  0  0  0  0  0  0  0
   20.9757   74.2170   -1.0660 P   0  0  2  0  0  0  0  0  0  0  0  0
   19.6194   74.7236   -0.3439 O   0  0  0  0  0  0  0  0  0  0  0  0
   21.2909   74.9199   -2.3546 O   0  0  0  0  0  0  0  0  0  0  0  0
   22.1166   74.3545    0.0673 O   0  0  0  0  0  0  0  0  0  0  0  0
   22.1829   75.5894    2.0890 O   0  0  0  0  0  0  0  0  0  0  0  0
   26.0906   76.1185    0.8642 O   0  0  0  0  0  0  0  0  0  0  0  0
   25.5216   74.3795    3.0778 O   0  0  0  0  0  0  0  0  0  0  0  0
   23.9511   76.1378   -1.0856 O   0  0  0  0  0  0  0  0  0  0  0  0
   24.8596   75.4079    1.0223 C   0  0  1  0  0  0  0  0  0  0  0  0
   24.5688   75.2795    2.5189 C   0  0  1  0  0  0  0  0  0  0  0  0
   23.7436   76.1809    0.3221 C   0  0  2  0  0  0  0  0  0  0  0  0
   23.1428   74.7683    2.7643 C   0  0  1  0  0  0  0  0  0  0  0  0
   22.3635   75.6213    0.6719 C   0  0  1  0  0  0  0  0  0  0  0  0
   26.8035   75.6328    1.3062 H   0  0  0  0  0  0  0  0  0  0  0  0
   26.4178   74.7137    2.9156 H   0  0  0  0  0  0  0  0  0  0  0  0
   24.8280   76.4950   -1.2941 H   0  0  0  0  0  0  0  0  0  0  0  0
   23.5791   73.8265    4.9164 O   0  0  0  0  0  0  0  0  0  0  0  0
   22.7774   74.7822    4.2470 C   0  0  0  0  0  0  0  0  0  0  0  0
   23.3577   73.8245    5.8612 H   0  0  0  0  0  0  0  0  0  0  0  0
 25 28  1  0
 25 24  1  0
 25 26  1  1
 25 27  2  0
  1  4  1  0
  1 24  1  0
  1  2  1  6
  1  3  2  0
  6 11  1  0
  6 12  1  0
 29 36  1  0
 29 37  1  0
  9  7  1  1
  7 13  1  0
 10  8  1  1
  8 14  1  0
 37 28  1  1
  4  5  1  0
 33 30  1  1
 30 38  1  0
 34 31  1  6
 31 39  1  0
 35 32  1  6
 32 40  1  0
 41 42  1  0
 41 43  1  0
 15 19  2  0
 16 22  2  0
 12 17  1  6
 17 19  1  0
 17 20  1  0
 18 19  1  0
 18 22  1  0
 18 23  1  0
  9 10  1  0
  9 11  1  0
 10 12  1  0
 11  5  1  6
 33 34  1  0
 33 35  1  0
 34 36  1  0
 35 37  1  0
 36 42  1  1
 20 21  2  0
 21 22  1  0
M  CHG  2   2  -1  26  -1
M  END
>  <COMPND>  (33) 
    8629 

>  <AUTHOR>  (33) 
    GENERATED BY OPEN BABEL 3.1.1

>  <MASTER>  (33) 
        0    0    0    0    0    0    0    0   58    0   58    0

>  <minimizedAffinity>  (33) 
-7.60263

>  <CNNscore>  (33) 
0.4349254072

>  <CNNaffinity>  (33) 
4.3265733719

>  <CNN_VS>  (33) 
1.8817366362

>  <CNNaffinity_variance>  (33) 
0.0419832207

$$$$
34
     RDKit          3D

 43 45  0  0  0  0  0  0  0  0999 V2000
   16.9115   69.7750   -6.1129 P   0  0  2  0  0  0  0  0  0  0  0  0
   16.6506   68.2410   -5.6703 O   0  0  0  0  0  0  0  0  0  0  0  0
   15.6737   70.5647   -6.4222 O   0  0  0  0  0  0  0  0  0  0  0  0
   17.9869   69.6547   -7.3158 O   0  0  0  0  0  0  0  0  0  0  0  0
   17.5192   69.7321   -8.6511 C   0  0  0  0  0  0  0  0  0  0  0  0
   17.6333   71.5165  -10.2563 O   0  0  0  0  0  0  0  0  0  0  0  0
   20.4553   71.9210   -9.3271 O   0  0  0  0  0  0  0  0  0  0  0  0
   19.1111   73.9058   -8.0269 O   0  0  0  0  0  0  0  0  0  0  0  0
   19.3029   71.5448   -8.5749 C   0  0  1  0  0  0  0  0  0  0  0  0
   18.3934   72.7389   -8.3736 C   0  0  2  0  0  0  0  0  0  0  0  0
   18.4472   70.6372   -9.4498 C   0  0  1  0  0  0  0  0  0  0  0  0
   17.7155   72.8506   -9.7286 C   0  0  2  0  0  0  0  0  0  0  0  0
   21.0174   72.5009   -8.7888 H   0  0  0  0  0  0  0  0  0  0  0  0
   19.5238   73.7853   -7.1575 H   0  0  0  0  0  0  0  0  0  0  0  0
   16.3295   74.0515  -11.8769 O   0  0  0  0  0  0  0  0  0  0  0  0
   12.6401   74.9156   -9.2533 O   0  0  0  0  0  0  0  0  0  0  0  0
   16.3912   73.3974   -9.6351 N   0  0  0  0  0  0  0  0  0  0  0  0
   14.4935   74.4806  -10.5688 N   0  0  0  0  0  0  0  0  0  0  0  0
   15.7854   73.9792  -10.7731 C   0  0  0  0  0  0  0  0  0  0  0  0
   15.7072   73.3533   -8.4252 C   0  0  0  0  0  0  0  0  0  0  0  0
   14.4762   73.8371   -8.2466 C   0  0  0  0  0  0  0  0  0  0  0  0
   13.7725   74.4615   -9.3855 C   0  0  0  0  0  0  0  0  0  0  0  0
   14.0518   74.8909  -11.3475 H   0  0  0  0  0  0  0  0  0  0  0  0
   17.7954   70.3601   -4.8926 O   0  0  0  0  0  0  0  0  0  0  0  0
   17.3602   71.1395   -3.5449 P   0  0  2  0  0  0  0  0  0  0  0  0
   16.7542   69.9625   -2.6149 O   0  0  0  0  0  0  0  0  0  0  0  0
   16.4244   72.2908   -3.7748 O   0  0  0  0  0  0  0  0  0  0  0  0
   18.7540   71.5415   -2.8373 O   0  0  0  0  0  0  0  0  0  0  0  0
   20.1182   73.0720   -4.0259 O   0  0  0  0  0  0  0  0  0  0  0  0
   22.9097   71.6520   -1.3348 O   0  0  0  0  0  0  0  0  0  0  0  0
   21.8706   74.3118   -1.0291 O   0  0  0  0  0  0  0  0  0  0  0  0
   20.9611   69.8450   -2.4826 O   0  0  0  0  0  0  0  0  0  0  0  0
   21.6088   72.0536   -1.7727 C   0  0  1  0  0  0  0  0  0  0  0  0
   21.6783   73.5214   -2.1989 C   0  0  1  0  0  0  0  0  0  0  0  0
   21.1829   71.1727   -2.9457 C   0  0  2  0  0  0  0  0  0  0  0  0
   20.3966   73.9480   -2.9273 C   0  0  1  0  0  0  0  0  0  0  0  0
   19.9258   71.7125   -3.6302 C   0  0  1  0  0  0  0  0  0  0  0  0
   23.1859   72.2071   -0.5898 H   0  0  0  0  0  0  0  0  0  0  0  0
   22.6828   74.0320   -0.5783 H   0  0  0  0  0  0  0  0  0  0  0  0
   21.7642   69.5146   -2.0516 H   0  0  0  0  0  0  0  0  0  0  0  0
   21.8778   75.6752   -3.6564 O   0  0  0  0  0  0  0  0  0  0  0  0
   20.5067   75.3597   -3.4992 C   0  0  0  0  0  0  0  0  0  0  0  0
   21.9632   76.5709   -4.0199 H   0  0  0  0  0  0  0  0  0  0  0  0
 25 28  1  0
 25 24  1  0
 25 26  1  1
 25 27  2  0
  1  4  1  0
  1 24  1  0
  1  2  1  1
  1  3  2  0
  6 11  1  0
  6 12  1  0
 29 36  1  0
 29 37  1  0
  9  7  1  6
  7 13  1  0
 10  8  1  6
  8 14  1  0
 37 28  1  1
  4  5  1  0
 33 30  1  6
 30 38  1  0
 34 31  1  1
 31 39  1  0
 35 32  1  1
 32 40  1  0
 41 42  1  0
 41 43  1  0
 15 19  2  0
 16 22  2  0
 12 17  1  1
 17 19  1  0
 17 20  1  0
 18 19  1  0
 18 22  1  0
 18 23  1  0
  9 10  1  0
  9 11  1  0
 10 12  1  0
 11  5  1  1
 33 34  1  0
 33 35  1  0
 34 36  1  0
 35 37  1  0
 36 42  1  6
 20 21  2  0
 21 22  1  0
M  CHG  2   2  -1  26  -1
M  END
>  <COMPND>  (34) 
    8629 

>  <AUTHOR>  (34) 
    GENERATED BY OPEN BABEL 3.1.1

>  <MASTER>  (34) 
        0    0    0    0    0    0    0    0   58    0   58    0

>  <minimizedAffinity>  (34) 
-6.50517

>  <CNNscore>  (34) 
0.4297860861

>  <CNNaffinity>  (34) 
4.0441141129

>  <CNN_VS>  (34) 
1.7381039858

>  <CNNaffinity_variance>  (34) 
0.1983306706

$$$$
35
     RDKit          3D

 43 45  0  0  0  0  0  0  0  0999 V2000
   19.3389   75.2828   -7.1066 P   0  0  2  0  0  0  0  0  0  0  0  0
   18.0741   75.0944   -6.1156 O   0  0  0  0  0  0  0  0  0  0  0  0
   19.3247   76.5438   -7.9196 O   0  0  0  0  0  0  0  0  0  0  0  0
   19.3799   73.9030   -7.9506 O   0  0  0  0  0  0  0  0  0  0  0  0
   18.5516   72.8312   -7.5348 C   0  0  0  0  0  0  0  0  0  0  0  0
   18.7076   70.4503   -7.2509 O   0  0  0  0  0  0  0  0  0  0  0  0
   19.3841   70.3347  -10.1698 O   0  0  0  0  0  0  0  0  0  0  0  0
   16.7527   69.6192  -10.1406 O   0  0  0  0  0  0  0  0  0  0  0  0
   18.4794   71.2012   -9.4869 C   0  0  1  0  0  0  0  0  0  0  0  0
   17.2234   70.4494   -9.0985 C   0  0  2  0  0  0  0  0  0  0  0  0
   19.0837   71.5341   -8.1285 C   0  0  1  0  0  0  0  0  0  0  0  0
   17.6905   69.6597   -7.8876 C   0  0  2  0  0  0  0  0  0  0  0  0
   19.0198   70.1084  -11.0404 H   0  0  0  0  0  0  0  0  0  0  0  0
   16.4673   70.1681  -10.8877 H   0  0  0  0  0  0  0  0  0  0  0  0
   15.2677   71.1095   -7.8090 O   0  0  0  0  0  0  0  0  0  0  0  0
   13.6988   68.6493   -4.2415 O   0  0  0  0  0  0  0  0  0  0  0  0
   16.6312   69.4189   -6.9489 N   0  0  0  0  0  0  0  0  0  0  0  0
   14.4884   69.8832   -6.0328 N   0  0  0  0  0  0  0  0  0  0  0  0
   15.4557   70.2041   -6.9938 C   0  0  0  0  0  0  0  0  0  0  0  0
   16.7637   68.4132   -5.9975 C   0  0  0  0  0  0  0  0  0  0  0  0
   15.8325   68.1207   -5.0873 C   0  0  0  0  0  0  0  0  0  0  0  0
   14.5742   68.8940   -5.0659 C   0  0  0  0  0  0  0  0  0  0  0  0
   13.6612   70.4173   -6.0448 H   0  0  0  0  0  0  0  0  0  0  0  0
   20.6048   75.1380   -6.1118 O   0  0  0  0  0  0  0  0  0  0  0  0
   21.7877   74.0379   -6.0522 P   0  0  2  0  0  0  0  0  0  0  0  0
   22.9135   74.7529   -5.1364 O   0  0  0  0  0  0  0  0  0  0  0  0
   22.2781   73.5882   -7.3980 O   0  0  0  0  0  0  0  0  0  0  0  0
   21.1991   72.8549   -5.1253 O   0  0  0  0  0  0  0  0  0  0  0  0
   19.2306   72.8572   -3.8056 O   0  0  0  0  0  0  0  0  0  0  0  0
   21.6187   70.4745   -1.4242 O   0  0  0  0  0  0  0  0  0  0  0  0
   19.4615   69.2901   -2.9047 O   0  0  0  0  0  0  0  0  0  0  0  0
   22.7631   72.7514   -2.7975 O   0  0  0  0  0  0  0  0  0  0  0  0
   21.1176   70.9981   -2.6572 C   0  0  1  0  0  0  0  0  0  0  0  0
   19.6197   70.6958   -2.7331 C   0  0  1  0  0  0  0  0  0  0  0  0
   21.3646   72.5050   -2.6967 C   0  0  2  0  0  0  0  0  0  0  0  0
   18.9597   71.4534   -3.8930 C   0  0  1  0  0  0  0  0  0  0  0  0
   20.6242   73.1684   -3.8594 C   0  0  1  0  0  0  0  0  0  0  0  0
   21.4654   69.5180   -1.3930 H   0  0  0  0  0  0  0  0  0  0  0  0
   19.8831   68.8235   -2.1660 H   0  0  0  0  0  0  0  0  0  0  0  0
   23.2204   72.3265   -2.0558 H   0  0  0  0  0  0  0  0  0  0  0  0
   17.0479   70.7533   -2.6425 O   0  0  0  0  0  0  0  0  0  0  0  0
   17.4412   71.2912   -3.8916 C   0  0  0  0  0  0  0  0  0  0  0  0
   16.0837   70.6448   -2.6271 H   0  0  0  0  0  0  0  0  0  0  0  0
 25 28  1  0
 25 24  1  0
 25 26  1  1
 25 27  2  0
  1  4  1  0
  1 24  1  0
  1  2  1  1
  1  3  2  0
  6 11  1  0
  6 12  1  0
 29 36  1  0
 29 37  1  0
  9  7  1  6
  7 13  1  0
 10  8  1  6
  8 14  1  0
 37 28  1  6
  4  5  1  0
 33 30  1  1
 30 38  1  0
 34 31  1  6
 31 39  1  0
 35 32  1  6
 32 40  1  0
 41 42  1  0
 41 43  1  0
 15 19  2  0
 16 22  2  0
 12 17  1  1
 17 19  1  0
 17 20  1  0
 18 19  1  0
 18 22  1  0
 18 23  1  0
  9 10  1  0
  9 11  1  0
 10 12  1  0
 11  5  1  1
 33 34  1  0
 33 35  1  0
 34 36  1  0
 35 37  1  0
 36 42  1  1
 20 21  2  0
 21 22  1  0
M  CHG  2   2  -1  26  -1
M  END
>  <COMPND>  (35) 
    8629 

>  <AUTHOR>  (35) 
    GENERATED BY OPEN BABEL 3.1.1

>  <MASTER>  (35) 
        0    0    0    0    0    0    0    0   58    0   58    0

>  <minimizedAffinity>  (35) 
-7.60836

>  <CNNscore>  (35) 
0.4126205742

>  <CNNaffinity>  (35) 
4.1641869545

>  <CNN_VS>  (35) 
1.7182291746

>  <CNNaffinity_variance>  (35) 
0.7107950449

$$$$
36
     RDKit          3D

 43 45  0  0  0  0  0  0  0  0999 V2000
   18.7875   73.9579   -7.3065 P   0  0  2  0  0  0  0  0  0  0  0  0
   17.3962   74.1030   -6.4938 O   0  0  0  0  0  0  0  0  0  0  0  0
   19.1321   75.1235   -8.1863 O   0  0  0  0  0  0  0  0  0  0  0  0
   18.6537   72.5290   -8.0537 O   0  0  0  0  0  0  0  0  0  0  0  0
   18.8352   71.3481   -7.2919 C   0  0  0  0  0  0  0  0  0  0  0  0
   17.4783   69.3930   -6.9592 O   0  0  0  0  0  0  0  0  0  0  0  0
   16.7566   69.6296   -9.8599 O   0  0  0  0  0  0  0  0  0  0  0  0
   14.5740   70.6904   -8.6159 O   0  0  0  0  0  0  0  0  0  0  0  0
   16.9884   70.6601   -8.9009 C   0  0  1  0  0  0  0  0  0  0  0  0
   15.8166   70.7640   -7.9471 C   0  0  2  0  0  0  0  0  0  0  0  0
   18.1097   70.1989   -7.9783 C   0  0  1  0  0  0  0  0  0  0  0  0
   16.0552   69.5805   -7.0249 C   0  0  2  0  0  0  0  0  0  0  0  0
   16.0445   69.9015  -10.4607 H   0  0  0  0  0  0  0  0  0  0  0  0
   14.4692   71.4652   -9.1899 H   0  0  0  0  0  0  0  0  0  0  0  0
   14.5389   67.7103   -5.5479 O   0  0  0  0  0  0  0  0  0  0  0  0
   14.1816   70.5670   -1.9489 O   0  0  0  0  0  0  0  0  0  0  0  0
   15.5533   69.8092   -5.6993 N   0  0  0  0  0  0  0  0  0  0  0  0
   14.3624   69.1342   -3.7570 N   0  0  0  0  0  0  0  0  0  0  0  0
   14.8016   68.8050   -5.0457 C   0  0  0  0  0  0  0  0  0  0  0  0
   15.8081   71.0181   -5.0609 C   0  0  0  0  0  0  0  0  0  0  0  0
   15.3809   71.3168   -3.8322 C   0  0  0  0  0  0  0  0  0  0  0  0
   14.5887   70.3223   -3.0804 C   0  0  0  0  0  0  0  0  0  0  0  0
   13.8365   68.4501   -3.2825 H   0  0  0  0  0  0  0  0  0  0  0  0
   19.8620   73.6571   -6.1369 O   0  0  0  0  0  0  0  0  0  0  0  0
   21.4486   73.9537   -6.0511 P   0  0  2  0  0  0  0  0  0  0  0  0
   21.5168   75.5610   -5.8791 O   0  0  0  0  0  0  0  0  0  0  0  0
   22.2379   73.4211   -7.2118 O   0  0  0  0  0  0  0  0  0  0  0  0
   21.8961   73.3707   -4.6141 O   0  0  0  0  0  0  0  0  0  0  0  0
   20.0633   72.8125   -3.2192 O   0  0  0  0  0  0  0  0  0  0  0  0
   23.1045   72.5846   -0.4354 O   0  0  0  0  0  0  0  0  0  0  0  0
   21.8674   70.1728   -1.3845 O   0  0  0  0  0  0  0  0  0  0  0  0
   23.1500   74.6556   -2.4573 O   0  0  0  0  0  0  0  0  0  0  0  0
   22.5096   72.4509   -1.7291 C   0  0  1  0  0  0  0  0  0  0  0  0
   21.3370   71.4743   -1.6191 C   0  0  1  0  0  0  0  0  0  0  0  0
   22.0258   73.8211   -2.2000 C   0  0  2  0  0  0  0  0  0  0  0  0
   20.4873   71.4828   -2.8970 C   0  0  1  0  0  0  0  0  0  0  0  0
   21.1495   73.7121   -3.4491 C   0  0  1  0  0  0  0  0  0  0  0  0
   23.4143   71.7181   -0.1308 H   0  0  0  0  0  0  0  0  0  0  0  0
   22.4022   70.1813   -0.5751 H   0  0  0  0  0  0  0  0  0  0  0  0
   23.6966   74.7169   -1.6589 H   0  0  0  0  0  0  0  0  0  0  0  0
   19.5645   69.2804   -2.9813 O   0  0  0  0  0  0  0  0  0  0  0  0
   19.2254   70.6354   -2.7503 C   0  0  0  0  0  0  0  0  0  0  0  0
   18.7710   68.7292   -2.8910 H   0  0  0  0  0  0  0  0  0  0  0  0
 25 28  1  0
 25 24  1  0
 25 26  1  1
 25 27  2  0
  1  4  1  0
  1 24  1  0
  1  2  1  1
  1  3  2  0
  6 11  1  0
  6 12  1  0
 29 36  1  0
 29 37  1  0
  9  7  1  6
  7 13  1  0
 10  8  1  6
  8 14  1  0
 37 28  1  6
  4  5  1  0
 33 30  1  1
 30 38  1  0
 34 31  1  6
 31 39  1  0
 35 32  1  6
 32 40  1  0
 41 42  1  0
 41 43  1  0
 15 19  2  0
 16 22  2  0
 12 17  1  1
 17 19  1  0
 17 20  1  0
 18 19  1  0
 18 22  1  0
 18 23  1  0
  9 10  1  0
  9 11  1  0
 10 12  1  0
 11  5  1  1
 33 34  1  0
 33 35  1  0
 34 36  1  0
 35 37  1  0
 36 42  1  1
 20 21  2  0
 21 22  1  0
M  CHG  2   2  -1  26  -1
M  END
>  <COMPND>  (36) 
    8629 

>  <AUTHOR>  (36) 
    GENERATED BY OPEN BABEL 3.1.1

>  <MASTER>  (36) 
        0    0    0    0    0    0    0    0   58    0   58    0

>  <minimizedAffinity>  (36) 
-8.08466

>  <CNNscore>  (36) 
0.4026506245

>  <CNNaffinity>  (36) 
4.1983003616

>  <CNN_VS>  (36) 
1.6904482841

>  <CNNaffinity_variance>  (36) 
0.5292969942

$$$$
37
     RDKit          3D

 43 45  0  0  0  0  0  0  0  0999 V2000
   21.4790   71.5091   -2.4418 P   0  0  2  0  0  0  0  0  0  0  0  0
   22.8136   71.7487   -3.3242 O   0  0  0  0  0  0  0  0  0  0  0  0
   21.5128   70.2972   -1.5576 O   0  0  0  0  0  0  0  0  0  0  0  0
   20.2815   71.5523   -3.5291 O   0  0  0  0  0  0  0  0  0  0  0  0
   19.4138   70.4362   -3.6240 C   0  0  0  0  0  0  0  0  0  0  0  0
   17.5278   71.5033   -4.6622 O   0  0  0  0  0  0  0  0  0  0  0  0
   15.8798   70.3179   -2.4555 O   0  0  0  0  0  0  0  0  0  0  0  0
   15.3831   68.6312   -4.5400 O   0  0  0  0  0  0  0  0  0  0  0  0
   17.0082   69.7684   -3.1338 C   0  0  1  0  0  0  0  0  0  0  0  0
   16.6172   69.3194   -4.5264 C   0  0  2  0  0  0  0  0  0  0  0  0
   17.9789   70.9056   -3.4271 C   0  0  1  0  0  0  0  0  0  0  0  0
   16.5595   70.6384   -5.2781 C   0  0  2  0  0  0  0  0  0  0  0  0
   15.2458   69.6102   -2.2573 H   0  0  0  0  0  0  0  0  0  0  0  0
   15.4713   67.7993   -4.0493 H   0  0  0  0  0  0  0  0  0  0  0  0
   14.6561   70.2460   -7.3277 O   0  0  0  0  0  0  0  0  0  0  0  0
   17.9193   70.0834  -10.5783 O   0  0  0  0  0  0  0  0  0  0  0  0
   16.8839   70.4908   -6.6689 N   0  0  0  0  0  0  0  0  0  0  0  0
   16.2824   70.1655   -8.9446 N   0  0  0  0  0  0  0  0  0  0  0  0
   15.8531   70.2971   -7.6178 C   0  0  0  0  0  0  0  0  0  0  0  0
   18.2116   70.5390   -7.0797 C   0  0  0  0  0  0  0  0  0  0  0  0
   18.6045   70.4105   -8.3487 C   0  0  0  0  0  0  0  0  0  0  0  0
   17.5899   70.2051   -9.4025 C   0  0  0  0  0  0  0  0  0  0  0  0
   15.5818   70.0294   -9.6231 H   0  0  0  0  0  0  0  0  0  0  0  0
   21.3066   72.9108   -1.6555 O   0  0  0  0  0  0  0  0  0  0  0  0
   21.5957   74.4316   -2.1209 P   0  0  2  0  0  0  0  0  0  0  0  0
   23.2003   74.5685   -1.9657 O   0  0  0  0  0  0  0  0  0  0  0  0
   20.8102   75.4656   -1.3674 O   0  0  0  0  0  0  0  0  0  0  0  0
   21.3392   74.4268   -3.7144 O   0  0  0  0  0  0  0  0  0  0  0  0
   21.2312   76.1217   -5.3674 O   0  0  0  0  0  0  0  0  0  0  0  0
   18.0204   73.8209   -6.5707 O   0  0  0  0  0  0  0  0  0  0  0  0
   20.4350   73.8094   -8.1256 O   0  0  0  0  0  0  0  0  0  0  0  0
   18.5416   74.2098   -3.7500 O   0  0  0  0  0  0  0  0  0  0  0  0
   19.3203   74.0594   -6.0242 C   0  0  1  0  0  0  0  0  0  0  0  0
   20.1694   74.7529   -7.0915 C   0  0  1  0  0  0  0  0  0  0  0  0
   19.1866   74.9433   -4.7855 C   0  0  2  0  0  0  0  0  0  0  0  0
   21.4831   75.2795   -6.4983 C   0  0  1  0  0  0  0  0  0  0  0  0
   20.5468   75.4532   -4.3060 C   0  0  1  0  0  0  0  0  0  0  0  0
   18.0982   73.2599   -7.3573 H   0  0  0  0  0  0  0  0  0  0  0  0
   19.5972   73.4844   -8.4914 H   0  0  0  0  0  0  0  0  0  0  0  0
   17.6816   73.8927   -4.0659 H   0  0  0  0  0  0  0  0  0  0  0  0
   22.9257   75.2302   -8.4024 O   0  0  0  0  0  0  0  0  0  0  0  0
   22.2731   76.1111   -7.5065 C   0  0  0  0  0  0  0  0  0  0  0  0
   23.4322   75.7455   -9.0501 H   0  0  0  0  0  0  0  0  0  0  0  0
 25 28  1  0
 25 24  1  0
 25 26  1  6
 25 27  2  0
  1  4  1  0
  1 24  1  0
  1  2  1  6
  1  3  2  0
  6 11  1  0
  6 12  1  0
 29 36  1  0
 29 37  1  0
  9  7  1  1
  7 13  1  0
 10  8  1  1
  8 14  1  0
 37 28  1  6
  4  5  1  0
 33 30  1  6
 30 38  1  0
 34 31  1  6
 31 39  1  0
 35 32  1  1
 32 40  1  0
 41 42  1  0
 41 43  1  0
 15 19  2  0
 16 22  2  0
 12 17  1  6
 17 19  1  0
 17 20  1  0
 18 19  1  0
 18 22  1  0
 18 23  1  0
  9 10  1  0
  9 11  1  0
 10 12  1  0
 11  5  1  6
 33 34  1  0
 33 35  1  0
 34 36  1  0
 35 37  1  0
 36 42  1  6
 20 21  2  0
 21 22  1  0
M  CHG  2   2  -1  26  -1
M  END
>  <COMPND>  (37) 
    8629 

>  <AUTHOR>  (37) 
    GENERATED BY OPEN BABEL 3.1.1

>  <MASTER>  (37) 
        0    0    0    0    0    0    0    0   58    0   58    0

>  <minimizedAffinity>  (37) 
-6.88715

>  <CNNscore>  (37) 
0.4000395238

>  <CNNaffinity>  (37) 
4.0946788788

>  <CNN_VS>  (37) 
1.6380333900

>  <CNNaffinity_variance>  (37) 
0.4000051916

$$$$
38
     RDKit          3D

 43 45  0  0  0  0  0  0  0  0999 V2000
   16.1577   73.9743   -5.2941 P   0  0  2  0  0  0  0  0  0  0  0  0
   14.7864   73.1161   -5.2734 O   0  0  0  0  0  0  0  0  0  0  0  0
   16.0401   75.3423   -5.8992 O   0  0  0  0  0  0  0  0  0  0  0  0
   17.2253   72.9836   -5.9989 O   0  0  0  0  0  0  0  0  0  0  0  0
   17.5580   73.2051   -7.3584 C   0  0  0  0  0  0  0  0  0  0  0  0
   18.1725   70.9116   -6.9898 O   0  0  0  0  0  0  0  0  0  0  0  0
   19.1586   70.9161   -9.8215 O   0  0  0  0  0  0  0  0  0  0  0  0
   16.7437   69.6674  -10.0351 O   0  0  0  0  0  0  0  0  0  0  0  0
   18.0283   71.5801   -9.2587 C   0  0  1  0  0  0  0  0  0  0  0  0
   16.9213   70.5860   -8.9761 C   0  0  2  0  0  0  0  0  0  0  0  0
   18.4057   72.0429   -7.8570 C   0  0  1  0  0  0  0  0  0  0  0  0
   17.4129   69.9210   -7.7016 C   0  0  2  0  0  0  0  0  0  0  0  0
   18.9418   70.6117  -10.7172 H   0  0  0  0  0  0  0  0  0  0  0  0
   16.4305   70.1386  -10.8229 H   0  0  0  0  0  0  0  0  0  0  0  0
   14.7795   70.9363   -7.8133 O   0  0  0  0  0  0  0  0  0  0  0  0
   13.3570   68.1239   -4.4506 O   0  0  0  0  0  0  0  0  0  0  0  0
   16.3343   69.4720   -6.8670 N   0  0  0  0  0  0  0  0  0  0  0  0
   14.0733   69.5350   -6.1390 N   0  0  0  0  0  0  0  0  0  0  0  0
   15.0497   70.0480   -7.0023 C   0  0  0  0  0  0  0  0  0  0  0  0
   16.5556   68.4709   -5.9275 C   0  0  0  0  0  0  0  0  0  0  0  0
   15.6141   67.9936   -5.1108 C   0  0  0  0  0  0  0  0  0  0  0  0
   14.2445   68.5416   -5.1878 C   0  0  0  0  0  0  0  0  0  0  0  0
   13.1707   69.9215   -6.2149 H   0  0  0  0  0  0  0  0  0  0  0  0
   16.6180   73.9613   -3.7446 O   0  0  0  0  0  0  0  0  0  0  0  0
   16.4641   72.8293   -2.6010 P   0  0  2  0  0  0  0  0  0  0  0  0
   15.9738   71.5291   -3.4295 O   0  0  0  0  0  0  0  0  0  0  0  0
   15.5599   73.2186   -1.4675 O   0  0  0  0  0  0  0  0  0  0  0  0
   17.9783   72.4849   -2.1607 O   0  0  0  0  0  0  0  0  0  0  0  0
   20.1316   73.4374   -2.4298 O   0  0  0  0  0  0  0  0  0  0  0  0
   20.9885   69.5491   -3.5241 O   0  0  0  0  0  0  0  0  0  0  0  0
   21.9242   70.5508   -1.0004 O   0  0  0  0  0  0  0  0  0  0  0  0
   18.4742   70.7494   -4.3094 O   0  0  0  0  0  0  0  0  0  0  0  0
   20.3289   70.5786   -2.7823 C   0  0  1  0  0  0  0  0  0  0  0  0
   21.3906   71.3814   -2.0279 C   0  0  1  0  0  0  0  0  0  0  0  0
   19.5618   71.4778   -3.7500 C   0  0  2  0  0  0  0  0  0  0  0  0
   20.7935   72.6601   -1.4250 C   0  0  1  0  0  0  0  0  0  0  0  0
   19.0526   72.7448   -3.0605 C   0  0  1  0  0  0  0  0  0  0  0  0
   21.4771   68.9743   -2.9155 H   0  0  0  0  0  0  0  0  0  0  0  0
   22.2976   69.7466   -1.3943 H   0  0  0  0  0  0  0  0  0  0  0  0
   18.8097   69.9499   -4.7432 H   0  0  0  0  0  0  0  0  0  0  0  0
   21.3240   74.8508   -0.6323 O   0  0  0  0  0  0  0  0  0  0  0  0
   21.8648   73.5537   -0.8036 C   0  0  0  0  0  0  0  0  0  0  0  0
   21.9947   75.4305   -0.2373 H   0  0  0  0  0  0  0  0  0  0  0  0
 25 28  1  0
 25 24  1  0
 25 26  1  6
 25 27  2  0
  1  4  1  0
  1 24  1  0
  1  2  1  1
  1  3  2  0
  6 11  1  0
  6 12  1  0
 29 36  1  0
 29 37  1  0
  9  7  1  1
  7 13  1  0
 10  8  1  6
  8 14  1  0
 37 28  1  1
  4  5  1  0
 33 30  1  6
 30 38  1  0
 34 31  1  1
 31 39  1  0
 35 32  1  1
 32 40  1  0
 41 42  1  0
 41 43  1  0
 15 19  2  0
 16 22  2  0
 12 17  1  1
 17 19  1  0
 17 20  1  0
 18 19  1  0
 18 22  1  0
 18 23  1  0
  9 10  1  0
  9 11  1  0
 10 12  1  0
 11  5  1  1
 33 34  1  0
 33 35  1  0
 34 36  1  0
 35 37  1  0
 36 42  1  6
 20 21  2  0
 21 22  1  0
M  CHG  2   2  -1  26  -1
M  END
>  <COMPND>  (38) 
    8629 

>  <AUTHOR>  (38) 
    GENERATED BY OPEN BABEL 3.1.1

>  <MASTER>  (38) 
        0    0    0    0    0    0    0    0   58    0   58    0

>  <minimizedAffinity>  (38) 
-7.11959

>  <CNNscore>  (38) 
0.3333831429

>  <CNNaffinity>  (38) 
3.8290984631

>  <CNN_VS>  (38) 
1.2765568495

>  <CNNaffinity_variance>  (38) 
0.9783511162

$$$$
39
     RDKit          3D

 43 45  0  0  0  0  0  0  0  0999 V2000
   16.7080   74.5045   -3.9323 P   0  0  2  0  0  0  0  0  0  0  0  0
   15.7224   74.4349   -5.2134 O   0  0  0  0  0  0  0  0  0  0  0  0
   16.1938   75.3172   -2.7805 O   0  0  0  0  0  0  0  0  0  0  0  0
   18.1217   74.9849   -4.5555 O   0  0  0  0  0  0  0  0  0  0  0  0
   18.3168   74.8731   -5.9545 C   0  0  0  0  0  0  0  0  0  0  0  0
   20.5743   75.2150   -5.2059 O   0  0  0  0  0  0  0  0  0  0  0  0
   21.2578   75.6968   -8.0854 O   0  0  0  0  0  0  0  0  0  0  0  0
   22.0942   73.1304   -7.6974 O   0  0  0  0  0  0  0  0  0  0  0  0
   20.3189   74.7824   -7.5218 C   0  0  1  0  0  0  0  0  0  0  0  0
   21.0408   73.6117   -6.8878 C   0  0  2  0  0  0  0  0  0  0  0  0
   19.6780   75.4532   -6.3132 C   0  0  1  0  0  0  0  0  0  0  0  0
   21.5344   74.2148   -5.5836 C   0  0  2  0  0  0  0  0  0  0  0  0
   21.6799   75.2907   -8.8592 H   0  0  0  0  0  0  0  0  0  0  0  0
   21.7292   72.7568   -8.5147 H   0  0  0  0  0  0  0  0  0  0  0  0
   23.8691   73.7301   -4.0695 O   0  0  0  0  0  0  0  0  0  0  0  0
   21.7935   70.4558   -1.5771 O   0  0  0  0  0  0  0  0  0  0  0  0
   21.6321   73.2416   -4.5326 N   0  0  0  0  0  0  0  0  0  0  0  0
   22.8337   72.1003   -2.8296 N   0  0  0  0  0  0  0  0  0  0  0  0
   22.8509   73.0761   -3.8343 C   0  0  0  0  0  0  0  0  0  0  0  0
   20.5272   72.4640   -4.2033 C   0  0  0  0  0  0  0  0  0  0  0  0
   20.5275   71.5367   -3.2434 C   0  0  0  0  0  0  0  0  0  0  0  0
   21.7613   71.3012   -2.4660 C   0  0  0  0  0  0  0  0  0  0  0  0
   23.6718   71.9672   -2.3300 H   0  0  0  0  0  0  0  0  0  0  0  0
   16.9718   72.9465   -3.5916 O   0  0  0  0  0  0  0  0  0  0  0  0
   16.5442   71.6007   -4.3784 P   0  0  2  0  0  0  0  0  0  0  0  0
   14.9609   71.8095   -4.6373 O   0  0  0  0  0  0  0  0  0  0  0  0
   16.8916   70.3301   -3.6581 O   0  0  0  0  0  0  0  0  0  0  0  0
   17.2188   71.7485   -5.8372 O   0  0  0  0  0  0  0  0  0  0  0  0
   16.4426   71.9180   -8.0700 O   0  0  0  0  0  0  0  0  0  0  0  0
   19.4013   69.0891   -8.6129 O   0  0  0  0  0  0  0  0  0  0  0  0
   19.8041   71.7648   -9.5753 O   0  0  0  0  0  0  0  0  0  0  0  0
   17.7603   69.0230   -6.2292 O   0  0  0  0  0  0  0  0  0  0  0  0
   18.7954   70.2451   -8.0281 C   0  0  1  0  0  0  0  0  0  0  0  0
   18.5425   71.2673   -9.1380 C   0  0  1  0  0  0  0  0  0  0  0  0
   17.4821   69.8378   -7.3628 C   0  0  2  0  0  0  0  0  0  0  0  0
   17.6578   72.4181   -8.6401 C   0  0  1  0  0  0  0  0  0  0  0  0
   16.6563   71.0573   -6.9494 C   0  0  1  0  0  0  0  0  0  0  0  0
   20.2360   69.3408   -9.0366 H   0  0  0  0  0  0  0  0  0  0  0  0
   20.3532   71.0282   -9.8867 H   0  0  0  0  0  0  0  0  0  0  0  0
   18.2831   68.2543   -6.5041 H   0  0  0  0  0  0  0  0  0  0  0  0
   17.4854   74.6964   -9.3394 O   0  0  0  0  0  0  0  0  0  0  0  0
   17.2630   73.3663   -9.7703 C   0  0  0  0  0  0  0  0  0  0  0  0
   17.2388   75.3109  -10.0487 H   0  0  0  0  0  0  0  0  0  0  0  0
 25 28  1  0
 25 24  1  0
 25 26  1  6
 25 27  2  0
  1  4  1  0
  1 24  1  0
  1  2  1  6
  1  3  2  0
  6 11  1  0
  6 12  1  0
 29 36  1  0
 29 37  1  0
  9  7  1  1
  7 13  1  0
 10  8  1  6
  8 14  1  0
 37 28  1  1
  4  5  1  0
 33 30  1  6
 30 38  1  0
 34 31  1  1
 31 39  1  0
 35 32  1  1
 32 40  1  0
 41 42  1  0
 41 43  1  0
 15 19  2  0
 16 22  2  0
 12 17  1  1
 17 19  1  0
 17 20  1  0
 18 19  1  0
 18 22  1  0
 18 23  1  0
  9 10  1  0
  9 11  1  0
 10 12  1  0
 11  5  1  1
 33 34  1  0
 33 35  1  0
 34 36  1  0
 35 37  1  0
 36 42  1  6
 20 21  2  0
 21 22  1  0
M  CHG  2   2  -1  26  -1
M  END
>  <COMPND>  (39) 
    8629 

>  <AUTHOR>  (39) 
    GENERATED BY OPEN BABEL 3.1.1

>  <MASTER>  (39) 
        0    0    0    0    0    0    0    0   58    0   58    0

>  <minimizedAffinity>  (39) 
-6.66069

>  <CNNscore>  (39) 
0.3245044649

>  <CNNaffinity>  (39) 
3.6663784981

>  <CNN_VS>  (39) 
1.1897561550

>  <CNNaffinity_variance>  (39) 
1.1253969669

$$$$
40
     RDKit          3D

 43 45  0  0  0  0  0  0  0  0999 V2000
   21.9451   73.4898   -4.0394 P   0  0  2  0  0  0  0  0  0  0  0  0
   21.2187   74.9210   -3.8356 O   0  0  0  0  0  0  0  0  0  0  0  0
   22.9470   73.4408   -5.1553 O   0  0  0  0  0  0  0  0  0  0  0  0
   20.7164   72.4431   -4.1518 O   0  0  0  0  0  0  0  0  0  0  0  0
   19.5267   72.8637   -4.7963 C   0  0  0  0  0  0  0  0  0  0  0  0
   18.9897   71.1900   -6.4346 O   0  0  0  0  0  0  0  0  0  0  0  0
   19.3727   73.3429   -8.4862 O   0  0  0  0  0  0  0  0  0  0  0  0
   16.6582   73.2143   -8.2593 O   0  0  0  0  0  0  0  0  0  0  0  0
   18.8223   73.4354   -7.1733 C   0  0  1  0  0  0  0  0  0  0  0  0
   17.4337   72.8318   -7.1416 C   0  0  2  0  0  0  0  0  0  0  0  0
   19.6017   72.4880   -6.2699 C   0  0  1  0  0  0  0  0  0  0  0  0
   17.7375   71.3434   -7.1226 C   0  0  2  0  0  0  0  0  0  0  0  0
   18.8913   73.9396   -9.0813 H   0  0  0  0  0  0  0  0  0  0  0  0
   16.4918   74.1692   -8.2260 H   0  0  0  0  0  0  0  0  0  0  0  0
   15.4133   70.2968   -8.3394 O   0  0  0  0  0  0  0  0  0  0  0  0
   13.9430   68.4612   -4.3758 O   0  0  0  0  0  0  0  0  0  0  0  0
   16.7306   70.5877   -6.4323 N   0  0  0  0  0  0  0  0  0  0  0  0
   14.6832   69.3835   -6.3649 N   0  0  0  0  0  0  0  0  0  0  0  0
   15.6012   70.1082   -7.1358 C   0  0  0  0  0  0  0  0  0  0  0  0
   16.8687   70.3287   -5.0730 C   0  0  0  0  0  0  0  0  0  0  0  0
   15.9837   69.6372   -4.3521 C   0  0  0  0  0  0  0  0  0  0  0  0
   14.7754   69.1009   -5.0113 C   0  0  0  0  0  0  0  0  0  0  0  0
   13.8882   69.0399   -6.8337 H   0  0  0  0  0  0  0  0  0  0  0  0
   22.5540   73.1794   -2.5745 O   0  0  0  0  0  0  0  0  0  0  0  0
   21.8281   72.7872   -1.1845 P   0  0  2  0  0  0  0  0  0  0  0  0
   22.0394   71.1857   -1.0946 O   0  0  0  0  0  0  0  0  0  0  0  0
   20.3963   73.2291   -1.0920 O   0  0  0  0  0  0  0  0  0  0  0  0
   22.7897   73.3903   -0.0371 O   0  0  0  0  0  0  0  0  0  0  0  0
   22.4440   74.7578    1.8674 O   0  0  0  0  0  0  0  0  0  0  0  0
   25.8652   76.5365    0.3902 O   0  0  0  0  0  0  0  0  0  0  0  0
   26.0138   74.9349    2.7695 O   0  0  0  0  0  0  0  0  0  0  0  0
   23.8255   75.5927   -1.4341 O   0  0  0  0  0  0  0  0  0  0  0  0
   24.9807   75.4492    0.6745 C   0  0  1  0  0  0  0  0  0  0  0  0
   24.7875   75.3719    2.1903 C   0  0  1  0  0  0  0  0  0  0  0  0
   23.6457   75.6957   -0.0258 C   0  0  2  0  0  0  0  0  0  0  0  0
   23.6506   74.4079    2.5554 C   0  0  1  0  0  0  0  0  0  0  0  0
   22.5713   74.7137    0.4448 C   0  0  1  0  0  0  0  0  0  0  0  0
   26.7150   76.3859    0.8316 H   0  0  0  0  0  0  0  0  0  0  0  0
   26.7234   75.5519    2.5310 H   0  0  0  0  0  0  0  0  0  0  0  0
   24.5078   76.2194   -1.7196 H   0  0  0  0  0  0  0  0  0  0  0  0
   21.9347   74.5554    4.2115 O   0  0  0  0  0  0  0  0  0  0  0  0
   23.3359   74.4345    4.0495 C   0  0  0  0  0  0  0  0  0  0  0  0
   21.7196   74.5733    5.1576 H   0  0  0  0  0  0  0  0  0  0  0  0
 25 28  1  0
 25 24  1  0
 25 26  1  1
 25 27  2  0
  1  4  1  0
  1 24  1  0
  1  2  1  1
  1  3  2  0
  6 11  1  0
  6 12  1  0
 29 36  1  0
 29 37  1  0
  9  7  1  6
  7 13  1  0
 10  8  1  6
  8 14  1  0
 37 28  1  1
  4  5  1  0
 33 30  1  1
 30 38  1  0
 34 31  1  1
 31 39  1  0
 35 32  1  6
 32 40  1  0
 41 42  1  0
 41 43  1  0
 15 19  2  0
 16 22  2  0
 12 17  1  1
 17 19  1  0
 17 20  1  0
 18 19  1  0
 18 22  1  0
 18 23  1  0
  9 10  1  0
  9 11  1  0
 10 12  1  0
 11  5  1  1
 33 34  1  0
 33 35  1  0
 34 36  1  0
 35 37  1  0
 36 42  1  1
 20 21  2  0
 21 22  1  0
M  CHG  2   2  -1  26  -1
M  END
>  <COMPND>  (40) 
    8629 

>  <AUTHOR>  (40) 
    GENERATED BY OPEN BABEL 3.1.1

>  <MASTER>  (40) 
        0    0    0    0    0    0    0    0   58    0   58    0

>  <minimizedAffinity>  (40) 
-6.91659

>  <CNNscore>  (40) 
0.3194635510

>  <CNNaffinity>  (40) 
3.9662470818

>  <CNN_VS>  (40) 
1.2670713663

>  <CNNaffinity_variance>  (40) 
0.1056316644

$$$$
41
     RDKit          3D

 43 45  0  0  0  0  0  0  0  0999 V2000
   21.6424   71.6073   -2.4344 P   0  0  2  0  0  0  0  0  0  0  0  0
   21.9002   70.1260   -3.0316 O   0  0  0  0  0  0  0  0  0  0  0  0
   21.6553   71.6980   -0.9367 O   0  0  0  0  0  0  0  0  0  0  0  0
   20.2746   72.0841   -3.1554 O   0  0  0  0  0  0  0  0  0  0  0  0
   19.6021   71.1686   -4.0024 C   0  0  0  0  0  0  0  0  0  0  0  0
   17.4218   71.5752   -4.9269 O   0  0  0  0  0  0  0  0  0  0  0  0
   16.3418   70.1367   -2.5278 O   0  0  0  0  0  0  0  0  0  0  0  0
   16.2138   68.2290   -4.4723 O   0  0  0  0  0  0  0  0  0  0  0  0
   17.5320   69.8823   -3.2722 C   0  0  1  0  0  0  0  0  0  0  0  0
   17.1938   69.2389   -4.6008 C   0  0  2  0  0  0  0  0  0  0  0  0
   18.1097   71.2237   -3.7063 C   0  0  1  0  0  0  0  0  0  0  0  0
   16.7057   70.4275   -5.4114 C   0  0  2  0  0  0  0  0  0  0  0  0
   15.9549   69.2947   -2.2394 H   0  0  0  0  0  0  0  0  0  0  0  0
   16.5721   67.4952   -3.9489 H   0  0  0  0  0  0  0  0  0  0  0  0
   14.7468   70.6839   -7.4301 O   0  0  0  0  0  0  0  0  0  0  0  0
   17.8086   69.8227  -10.7656 O   0  0  0  0  0  0  0  0  0  0  0  0
   16.9634   70.2757   -6.8156 N   0  0  0  0  0  0  0  0  0  0  0  0
   16.2730   70.2551   -9.0893 N   0  0  0  0  0  0  0  0  0  0  0  0
   15.9093   70.4236   -7.7471 C   0  0  0  0  0  0  0  0  0  0  0  0
   18.2495   69.9839   -7.2566 C   0  0  0  0  0  0  0  0  0  0  0  0
   18.5796   69.8250   -8.5400 C   0  0  0  0  0  0  0  0  0  0  0  0
   17.5369   69.9631   -9.5771 C   0  0  0  0  0  0  0  0  0  0  0  0
   15.5550   70.3531   -9.7561 H   0  0  0  0  0  0  0  0  0  0  0  0
   22.7716   72.4982   -3.1721 O   0  0  0  0  0  0  0  0  0  0  0  0
   22.6409   73.7358   -4.2037 P   0  0  2  0  0  0  0  0  0  0  0  0
   21.4881   74.6545   -3.5369 O   0  0  0  0  0  0  0  0  0  0  0  0
   22.3648   73.3282   -5.6219 O   0  0  0  0  0  0  0  0  0  0  0  0
   24.0017   74.5802   -4.0033 O   0  0  0  0  0  0  0  0  0  0  0  0
   23.7852   76.2849   -2.3712 O   0  0  0  0  0  0  0  0  0  0  0  0
   27.4230   77.3792   -3.9897 O   0  0  0  0  0  0  0  0  0  0  0  0
   27.3323   76.2037   -1.3709 O   0  0  0  0  0  0  0  0  0  0  0  0
   25.3209   76.3764   -5.7087 O   0  0  0  0  0  0  0  0  0  0  0  0
   26.4092   76.4657   -3.5619 C   0  0  1  0  0  0  0  0  0  0  0  0
   26.1787   76.6725   -2.0636 C   0  0  1  0  0  0  0  0  0  0  0  0
   25.1272   76.7397   -4.3460 C   0  0  2  0  0  0  0  0  0  0  0  0
   24.9277   75.9223   -1.5868 C   0  0  1  0  0  0  0  0  0  0  0  0
   23.9340   75.9828   -3.7599 C   0  0  1  0  0  0  0  0  0  0  0  0
   28.2399   77.2102   -3.4960 H   0  0  0  0  0  0  0  0  0  0  0  0
   28.1153   76.6850   -1.6816 H   0  0  0  0  0  0  0  0  0  0  0  0
   26.0788   76.8624   -6.0682 H   0  0  0  0  0  0  0  0  0  0  0  0
   25.4236   77.2993    0.3018 O   0  0  0  0  0  0  0  0  0  0  0  0
   24.5894   76.2409   -0.1321 C   0  0  0  0  0  0  0  0  0  0  0  0
   25.2192   77.5131    1.2260 H   0  0  0  0  0  0  0  0  0  0  0  0
 25 28  1  0
 25 24  1  0
 25 26  1  1
 25 27  2  0
  1  4  1  0
  1 24  1  0
  1  2  1  1
  1  3  2  0
  6 11  1  0
  6 12  1  0
 29 36  1  0
 29 37  1  0
  9  7  1  1
  7 13  1  0
 10  8  1  1
  8 14  1  0
 37 28  1  1
  4  5  1  0
 33 30  1  6
 30 38  1  0
 34 31  1  1
 31 39  1  0
 35 32  1  6
 32 40  1  0
 41 42  1  0
 41 43  1  0
 15 19  2  0
 16 22  2  0
 12 17  1  6
 17 19  1  0
 17 20  1  0
 18 19  1  0
 18 22  1  0
 18 23  1  0
  9 10  1  0
  9 11  1  0
 10 12  1  0
 11  5  1  6
 33 34  1  0
 33 35  1  0
 34 36  1  0
 35 37  1  0
 36 42  1  1
 20 21  2  0
 21 22  1  0
M  CHG  2   2  -1  26  -1
M  END
>  <COMPND>  (41) 
    8629 

>  <AUTHOR>  (41) 
    GENERATED BY OPEN BABEL 3.1.1

>  <MASTER>  (41) 
        0    0    0    0    0    0    0    0   58    0   58    0

>  <minimizedAffinity>  (41) 
-7.06869

>  <CNNscore>  (41) 
0.6651405096

>  <CNNaffinity>  (41) 
4.5206384659

>  <CNN_VS>  (41) 
3.0068597794

>  <CNNaffinity_variance>  (41) 
0.1003345251

$$$$
42
     RDKit          3D

 43 45  0  0  0  0  0  0  0  0999 V2000
   19.0140   71.6744   -4.2498 P   0  0  2  0  0  0  0  0  0  0  0  0
   18.1216   71.0133   -3.0734 O   0  0  0  0  0  0  0  0  0  0  0  0
   18.6927   73.1069   -4.5600 O   0  0  0  0  0  0  0  0  0  0  0  0
   18.8617   70.6374   -5.4823 O   0  0  0  0  0  0  0  0  0  0  0  0
   18.6852   71.1597   -6.7876 C   0  0  0  0  0  0  0  0  0  0  0  0
   17.1305   69.3287   -6.7238 O   0  0  0  0  0  0  0  0  0  0  0  0
   16.6336   69.8942   -9.6263 O   0  0  0  0  0  0  0  0  0  0  0  0
   14.4812   71.0533   -8.4179 O   0  0  0  0  0  0  0  0  0  0  0  0
   16.8957   70.8066   -8.5613 C   0  0  1  0  0  0  0  0  0  0  0  0
   15.6767   70.9419   -7.6728 C   0  0  2  0  0  0  0  0  0  0  0  0
   17.9030   70.1549   -7.6222 C   0  0  1  0  0  0  0  0  0  0  0  0
   15.7392   69.6629   -6.8553 C   0  0  2  0  0  0  0  0  0  0  0  0
   15.9929   70.2886  -10.2394 H   0  0  0  0  0  0  0  0  0  0  0  0
   14.4893   71.8827   -8.9205 H   0  0  0  0  0  0  0  0  0  0  0  0
   14.5883   67.5682   -5.3501 O   0  0  0  0  0  0  0  0  0  0  0  0
   13.5926   70.3888   -1.8438 O   0  0  0  0  0  0  0  0  0  0  0  0
   15.1720   69.8217   -5.5459 N   0  0  0  0  0  0  0  0  0  0  0  0
   14.0936   68.9743   -3.6054 N   0  0  0  0  0  0  0  0  0  0  0  0
   14.6184   68.7057   -4.8760 C   0  0  0  0  0  0  0  0  0  0  0  0
   15.1686   71.0730   -4.9392 C   0  0  0  0  0  0  0  0  0  0  0  0
   14.6631   71.3126   -3.7275 C   0  0  0  0  0  0  0  0  0  0  0  0
   14.0657   70.2006   -2.9603 C   0  0  0  0  0  0  0  0  0  0  0  0
   13.7023   68.2120   -3.1200 H   0  0  0  0  0  0  0  0  0  0  0  0
   20.5281   71.4187   -3.7448 O   0  0  0  0  0  0  0  0  0  0  0  0
   21.4148   72.1733   -2.6234 P   0  0  2  0  0  0  0  0  0  0  0  0
   22.8193   71.3710   -2.6594 O   0  0  0  0  0  0  0  0  0  0  0  0
   20.7711   72.2344   -1.2685 O   0  0  0  0  0  0  0  0  0  0  0  0
   21.7514   73.6134   -3.2697 O   0  0  0  0  0  0  0  0  0  0  0  0
   22.6583   73.3214   -5.4397 O   0  0  0  0  0  0  0  0  0  0  0  0
   23.1893   77.3974   -5.0456 O   0  0  0  0  0  0  0  0  0  0  0  0
   21.1601   76.3963   -6.8143 O   0  0  0  0  0  0  0  0  0  0  0  0
   23.6042   75.6603   -2.7675 O   0  0  0  0  0  0  0  0  0  0  0  0
   22.5199   76.1469   -4.8624 C   0  0  1  0  0  0  0  0  0  0  0  0
   22.1776   75.5796   -6.2415 C   0  0  1  0  0  0  0  0  0  0  0  0
   23.4410   75.1942   -4.1027 C   0  0  2  0  0  0  0  0  0  0  0  0
   21.7006   74.1246   -6.1392 C   0  0  1  0  0  0  0  0  0  0  0  0
   22.8982   73.7640   -4.1024 C   0  0  1  0  0  0  0  0  0  0  0  0
   22.6096   78.0071   -5.5270 H   0  0  0  0  0  0  0  0  0  0  0  0
   21.4739   77.3124   -6.8728 H   0  0  0  0  0  0  0  0  0  0  0  0
   23.9486   76.5664   -2.7813 H   0  0  0  0  0  0  0  0  0  0  0  0
   22.5093   73.9784   -8.3827 O   0  0  0  0  0  0  0  0  0  0  0  0
   21.5044   73.4891   -7.5138 C   0  0  0  0  0  0  0  0  0  0  0  0
   22.3972   73.5822   -9.2614 H   0  0  0  0  0  0  0  0  0  0  0  0
 25 28  1  0
 25 24  1  0
 25 26  1  1
 25 27  2  0
  1  4  1  0
  1 24  1  0
  1  2  1  1
  1  3  2  0
  6 11  1  0
  6 12  1  0
 29 36  1  0
 29 37  1  0
  9  7  1  6
  7 13  1  0
 10  8  1  6
  8 14  1  0
 37 28  1  1
  4  5  1  0
 33 30  1  6
 30 38  1  0
 34 31  1  1
 31 39  1  0
 35 32  1  1
 32 40  1  0
 41 42  1  0
 41 43  1  0
 15 19  2  0
 16 22  2  0
 12 17  1  1
 17 19  1  0
 17 20  1  0
 18 19  1  0
 18 22  1  0
 18 23  1  0
  9 10  1  0
  9 11  1  0
 10 12  1  0
 11  5  1  1
 33 34  1  0
 33 35  1  0
 34 36  1  0
 35 37  1  0
 36 42  1  6
 20 21  2  0
 21 22  1  0
M  CHG  2   2  -1  26  -1
M  END
>  <COMPND>  (42) 
    8629 

>  <AUTHOR>  (42) 
    GENERATED BY OPEN BABEL 3.1.1

>  <MASTER>  (42) 
        0    0    0    0    0    0    0    0   58    0   58    0

>  <minimizedAffinity>  (42) 
-7.28828

>  <CNNscore>  (42) 
0.6112487316

>  <CNNaffinity>  (42) 
4.3759436607

>  <CNN_VS>  (42) 
2.6747899055

>  <CNNaffinity_variance>  (42) 
0.1124585420

$$$$
43
     RDKit          3D

 43 45  0  0  0  0  0  0  0  0999 V2000
   20.5802   73.1701   -7.1946 P   0  0  2  0  0  0  0  0  0  0  0  0
   19.6660   74.4146   -6.7121 O   0  0  0  0  0  0  0  0  0  0  0  0
   22.0579   73.4304   -7.1910 O   0  0  0  0  0  0  0  0  0  0  0  0
   19.9440   72.7512   -8.6221 O   0  0  0  0  0  0  0  0  0  0  0  0
   19.3828   71.4573   -8.7586 C   0  0  0  0  0  0  0  0  0  0  0  0
   17.1806   70.6144   -9.2207 O   0  0  0  0  0  0  0  0  0  0  0  0
   16.8245   73.0302  -10.9608 O   0  0  0  0  0  0  0  0  0  0  0  0
   15.4886   73.7317   -8.6893 O   0  0  0  0  0  0  0  0  0  0  0  0
   17.5264   72.9039   -9.7252 C   0  0  1  0  0  0  0  0  0  0  0  0
   16.5488   72.8048   -8.5729 C   0  0  2  0  0  0  0  0  0  0  0  0
   18.1883   71.5318   -9.6997 C   0  0  1  0  0  0  0  0  0  0  0  0
   16.0799   71.3637   -8.6805 C   0  0  2  0  0  0  0  0  0  0  0  0
   16.3938   73.8990  -11.0004 H   0  0  0  0  0  0  0  0  0  0  0  0
   15.8377   74.6336   -8.6144 H   0  0  0  0  0  0  0  0  0  0  0  0
   13.7447   72.0478   -7.2462 O   0  0  0  0  0  0  0  0  0  0  0  0
   14.7972   69.1721   -3.8019 O   0  0  0  0  0  0  0  0  0  0  0  0
   15.7186   70.8088   -7.4065 N   0  0  0  0  0  0  0  0  0  0  0  0
   14.2706   70.6152   -5.5325 N   0  0  0  0  0  0  0  0  0  0  0  0
   14.5247   71.2205   -6.7698 C   0  0  0  0  0  0  0  0  0  0  0  0
   16.5439   69.8670   -6.8018 C   0  0  0  0  0  0  0  0  0  0  0  0
   16.2880   69.3002   -5.6209 C   0  0  0  0  0  0  0  0  0  0  0  0
   15.0605   69.6753   -4.8896 C   0  0  0  0  0  0  0  0  0  0  0  0
   13.4446   70.8869   -5.0702 H   0  0  0  0  0  0  0  0  0  0  0  0
   20.1059   71.9712   -6.2196 O   0  0  0  0  0  0  0  0  0  0  0  0
   19.2746   71.9960   -4.8335 P   0  0  2  0  0  0  0  0  0  0  0  0
   19.2979   70.4495   -4.3590 O   0  0  0  0  0  0  0  0  0  0  0  0
   17.8995   72.5870   -4.9512 O   0  0  0  0  0  0  0  0  0  0  0  0
   20.2426   72.7572   -3.7902 O   0  0  0  0  0  0  0  0  0  0  0  0
   22.5497   73.2602   -3.9920 O   0  0  0  0  0  0  0  0  0  0  0  0
   22.3807   72.5581    0.0736 O   0  0  0  0  0  0  0  0  0  0  0  0
   22.7033   75.2446   -0.8892 O   0  0  0  0  0  0  0  0  0  0  0  0
   20.8174   70.9303   -1.7390 O   0  0  0  0  0  0  0  0  0  0  0  0
   21.8934   73.0144   -1.1912 C   0  0  1  0  0  0  0  0  0  0  0  0
   22.8474   74.0908   -1.7128 C   0  0  1  0  0  0  0  0  0  0  0  0
   21.8342   71.8338   -2.1587 C   0  0  2  0  0  0  0  0  0  0  0  0
   22.5441   74.4378   -3.1765 C   0  0  1  0  0  0  0  0  0  0  0  0
   21.5758   72.2929   -3.5949 C   0  0  1  0  0  0  0  0  0  0  0  0
   22.4203   73.3029    0.6927 H   0  0  0  0  0  0  0  0  0  0  0  0
   22.8972   75.0118    0.0324 H   0  0  0  0  0  0  0  0  0  0  0  0
   20.9925   70.6469   -0.8286 H   0  0  0  0  0  0  0  0  0  0  0  0
   24.5873   75.6160   -2.7945 O   0  0  0  0  0  0  0  0  0  0  0  0
   23.5807   75.3926   -3.7646 C   0  0  0  0  0  0  0  0  0  0  0  0
   25.2542   76.2217   -3.1551 H   0  0  0  0  0  0  0  0  0  0  0  0
 25 28  1  0
 25 24  1  0
 25 26  1  1
 25 27  2  0
  1  4  1  0
  1 24  1  0
  1  2  1  1
  1  3  2  0
  6 11  1  0
  6 12  1  0
 29 36  1  0
 29 37  1  0
  9  7  1  6
  7 13  1  0
 10  8  1  6
  8 14  1  0
 37 28  1  1
  4  5  1  0
 33 30  1  1
 30 38  1  0
 34 31  1  1
 31 39  1  0
 35 32  1  1
 32 40  1  0
 41 42  1  0
 41 43  1  0
 15 19  2  0
 16 22  2  0
 12 17  1  1
 17 19  1  0
 17 20  1  0
 18 19  1  0
 18 22  1  0
 18 23  1  0
  9 10  1  0
  9 11  1  0
 10 12  1  0
 11  5  1  1
 33 34  1  0
 33 35  1  0
 34 36  1  0
 35 37  1  0
 36 42  1  6
 20 21  2  0
 21 22  1  0
M  CHG  2   2  -1  26  -1
M  END
>  <COMPND>  (43) 
    8629 

>  <AUTHOR>  (43) 
    GENERATED BY OPEN BABEL 3.1.1

>  <MASTER>  (43) 
        0    0    0    0    0    0    0    0   58    0   58    0

>  <minimizedAffinity>  (43) 
-7.06287

>  <CNNscore>  (43) 
0.5956588387

>  <CNNaffinity>  (43) 
4.4074897766

>  <CNN_VS>  (43) 
2.6253602505

>  <CNNaffinity_variance>  (43) 
0.1442887783

$$$$
44
     RDKit          3D

 43 45  0  0  0  0  0  0  0  0999 V2000
   18.7196   74.0446   -7.7327 P   0  0  2  0  0  0  0  0  0  0  0  0
   17.2062   73.9922   -7.1632 O   0  0  0  0  0  0  0  0  0  0  0  0
   19.1077   75.3403   -8.3824 O   0  0  0  0  0  0  0  0  0  0  0  0
   18.8282   72.7292   -8.6685 O   0  0  0  0  0  0  0  0  0  0  0  0
   19.3699   71.5449   -8.1099 C   0  0  0  0  0  0  0  0  0  0  0  0
   18.1659   69.5455   -7.5387 O   0  0  0  0  0  0  0  0  0  0  0  0
   17.0303   69.6612  -10.3114 O   0  0  0  0  0  0  0  0  0  0  0  0
   14.9992   70.6668   -8.7948 O   0  0  0  0  0  0  0  0  0  0  0  0
   17.3476   70.7299   -9.4211 C   0  0  1  0  0  0  0  0  0  0  0  0
   16.3193   70.8136   -8.3125 C   0  0  2  0  0  0  0  0  0  0  0  0
   18.6085   70.3453   -8.6571 C   0  0  1  0  0  0  0  0  0  0  0  0
   16.7406   69.6704   -7.4049 C   0  0  2  0  0  0  0  0  0  0  0  0
   16.2285   69.8840  -10.8109 H   0  0  0  0  0  0  0  0  0  0  0  0
   14.7784   71.4183   -9.3669 H   0  0  0  0  0  0  0  0  0  0  0  0
   16.2405   67.6515   -5.4939 O   0  0  0  0  0  0  0  0  0  0  0  0
   15.5248   70.7401   -2.1488 O   0  0  0  0  0  0  0  0  0  0  0  0
   16.4216   69.9186   -6.0273 N   0  0  0  0  0  0  0  0  0  0  0  0
   15.8847   69.1910   -3.8298 N   0  0  0  0  0  0  0  0  0  0  0  0
   16.1871   68.8341   -5.1501 C   0  0  0  0  0  0  0  0  0  0  0  0
   16.3442   71.2256   -5.5585 C   0  0  0  0  0  0  0  0  0  0  0  0
   16.0534   71.5491   -4.2968 C   0  0  0  0  0  0  0  0  0  0  0  0
   15.7948   70.4750   -3.3162 C   0  0  0  0  0  0  0  0  0  0  0  0
   15.7172   68.4520   -3.2009 H   0  0  0  0  0  0  0  0  0  0  0  0
   19.6077   73.6467   -6.4420 O   0  0  0  0  0  0  0  0  0  0  0  0
   21.1365   74.0017   -6.0550 P   0  0  2  0  0  0  0  0  0  0  0  0
   21.0893   75.5955   -5.7810 O   0  0  0  0  0  0  0  0  0  0  0  0
   22.1455   73.5798   -7.0835 O   0  0  0  0  0  0  0  0  0  0  0  0
   21.3521   73.3436   -4.5971 O   0  0  0  0  0  0  0  0  0  0  0  0
   19.6882   71.8742   -3.7674 O   0  0  0  0  0  0  0  0  0  0  0  0
   21.5615   72.8243   -0.2123 O   0  0  0  0  0  0  0  0  0  0  0  0
   21.9232   70.2131   -1.3519 O   0  0  0  0  0  0  0  0  0  0  0  0
   21.1947   74.8578   -2.2396 O   0  0  0  0  0  0  0  0  0  0  0  0
   21.4887   72.5505   -1.6141 C   0  0  1  0  0  0  0  0  0  0  0  0
   20.9341   71.1365   -1.7983 C   0  0  1  0  0  0  0  0  0  0  0  0
   20.5727   73.5779   -2.2765 C   0  0  2  0  0  0  0  0  0  0  0  0
   20.5768   70.8686   -3.2665 C   0  0  1  0  0  0  0  0  0  0  0  0
   20.2401   73.1913   -3.7187 C   0  0  1  0  0  0  0  0  0  0  0  0
   22.1421   72.1758    0.2142 H   0  0  0  0  0  0  0  0  0  0  0  0
   22.1402   70.3935   -0.4237 H   0  0  0  0  0  0  0  0  0  0  0  0
   21.3999   75.0911   -1.3213 H   0  0  0  0  0  0  0  0  0  0  0  0
   18.7848   69.4603   -2.5492 O   0  0  0  0  0  0  0  0  0  0  0  0
   19.8765   69.5237   -3.4484 C   0  0  0  0  0  0  0  0  0  0  0  0
   18.3294   68.6098   -2.6540 H   0  0  0  0  0  0  0  0  0  0  0  0
 25 28  1  0
 25 24  1  0
 25 26  1  1
 25 27  2  0
  1  4  1  0
  1 24  1  0
  1  2  1  1
  1  3  2  0
  6 11  1  0
  6 12  1  0
 29 36  1  0
 29 37  1  0
  9  7  1  6
  7 13  1  0
 10  8  1  6
  8 14  1  0
 37 28  1  6
  4  5  1  0
 33 30  1  1
 30 38  1  0
 34 31  1  6
 31 39  1  0
 35 32  1  6
 32 40  1  0
 41 42  1  0
 41 43  1  0
 15 19  2  0
 16 22  2  0
 12 17  1  1
 17 19  1  0
 17 20  1  0
 18 19  1  0
 18 22  1  0
 18 23  1  0
  9 10  1  0
  9 11  1  0
 10 12  1  0
 11  5  1  1
 33 34  1  0
 33 35  1  0
 34 36  1  0
 35 37  1  0
 36 42  1  1
 20 21  2  0
 21 22  1  0
M  CHG  2   2  -1  26  -1
M  END
>  <COMPND>  (44) 
    8629 

>  <AUTHOR>  (44) 
    GENERATED BY OPEN BABEL 3.1.1

>  <MASTER>  (44) 
        0    0    0    0    0    0    0    0   58    0   58    0

>  <minimizedAffinity>  (44) 
-8.09234

>  <CNNscore>  (44) 
0.5448806882

>  <CNNaffinity>  (44) 
4.2608461380

>  <CNN_VS>  (44) 
2.3216528893

>  <CNNaffinity_variance>  (44) 
0.8659199476

$$$$
45
     RDKit          3D

 43 45  0  0  0  0  0  0  0  0999 V2000
   18.9302   74.0191   -7.7453 P   0  0  2  0  0  0  0  0  0  0  0  0
   17.6763   74.9522   -8.1630 O   0  0  0  0  0  0  0  0  0  0  0  0
   20.2310   74.7464   -7.5711 O   0  0  0  0  0  0  0  0  0  0  0  0
   18.9262   72.8429   -8.8563 O   0  0  0  0  0  0  0  0  0  0  0  0
   19.7351   71.7008   -8.6348 C   0  0  0  0  0  0  0  0  0  0  0  0
   18.8932   69.5183   -8.0857 O   0  0  0  0  0  0  0  0  0  0  0  0
   17.2143   69.7488  -10.5594 O   0  0  0  0  0  0  0  0  0  0  0  0
   15.4362   70.3372   -8.5773 O   0  0  0  0  0  0  0  0  0  0  0  0
   17.5887   70.7604   -9.6256 C   0  0  1  0  0  0  0  0  0  0  0  0
   16.8031   70.6061   -8.3401 C   0  0  2  0  0  0  0  0  0  0  0  0
   19.0119   70.4705   -9.1653 C   0  0  1  0  0  0  0  0  0  0  0  0
   17.5195   69.4458   -7.6703 C   0  0  2  0  0  0  0  0  0  0  0  0
   16.3089   69.9130  -10.8679 H   0  0  0  0  0  0  0  0  0  0  0  0
   15.0249   71.1048   -9.0044 H   0  0  0  0  0  0  0  0  0  0  0  0
   15.2206   68.8661   -6.1350 O   0  0  0  0  0  0  0  0  0  0  0  0
   17.4110   69.7643   -2.1807 O   0  0  0  0  0  0  0  0  0  0  0  0
   17.4610   69.5196   -6.2376 N   0  0  0  0  0  0  0  0  0  0  0  0
   16.3132   69.3136   -4.1673 N   0  0  0  0  0  0  0  0  0  0  0  0
   16.2574   69.2090   -5.5630 C   0  0  0  0  0  0  0  0  0  0  0  0
   18.5889   69.8964   -5.5166 C   0  0  0  0  0  0  0  0  0  0  0  0
   18.6253   69.9926   -4.1859 C   0  0  0  0  0  0  0  0  0  0  0  0
   17.4095   69.6851   -3.4052 C   0  0  0  0  0  0  0  0  0  0  0  0
   15.4862   69.1023   -3.6761 H   0  0  0  0  0  0  0  0  0  0  0  0
   18.3971   73.2667   -6.4177 O   0  0  0  0  0  0  0  0  0  0  0  0
   17.8946   73.8502   -4.9964 P   0  0  2  0  0  0  0  0  0  0  0  0
   16.6037   72.9363   -4.6557 O   0  0  0  0  0  0  0  0  0  0  0  0
   17.6247   75.3270   -4.9982 O   0  0  0  0  0  0  0  0  0  0  0  0
   19.0193   73.3770   -3.9399 O   0  0  0  0  0  0  0  0  0  0  0  0
   20.3726   74.6554   -2.4734 O   0  0  0  0  0  0  0  0  0  0  0  0
   23.0977   71.7289   -3.5031 O   0  0  0  0  0  0  0  0  0  0  0  0
   21.9415   71.7280   -0.8741 O   0  0  0  0  0  0  0  0  0  0  0  0
   21.2743   72.7696   -5.4960 O   0  0  0  0  0  0  0  0  0  0  0  0
   21.8023   72.2555   -3.2029 C   0  0  1  0  0  0  0  0  0  0  0  0
   21.8321   72.8211   -1.7816 C   0  0  1  0  0  0  0  0  0  0  0  0
   21.4634   73.3521   -4.2109 C   0  0  2  0  0  0  0  0  0  0  0  0
   20.5677   73.6382   -1.4839 C   0  0  1  0  0  0  0  0  0  0  0  0
   20.2171   74.1357   -3.7953 C   0  0  1  0  0  0  0  0  0  0  0  0
   23.3187   71.0318   -2.8670 H   0  0  0  0  0  0  0  0  0  0  0  0
   22.7437   71.2200   -1.0732 H   0  0  0  0  0  0  0  0  0  0  0  0
   22.0702   72.2767   -5.7478 H   0  0  0  0  0  0  0  0  0  0  0  0
   21.0241   73.3911    0.8483 O   0  0  0  0  0  0  0  0  0  0  0  0
   20.6467   74.3415   -0.1307 C   0  0  0  0  0  0  0  0  0  0  0  0
   21.0787   73.8246    1.7148 H   0  0  0  0  0  0  0  0  0  0  0  0
 25 28  1  0
 25 24  1  0
 25 26  1  1
 25 27  2  0
  1  4  1  0
  1 24  1  0
  1  2  1  6
  1  3  2  0
  6 11  1  0
  6 12  1  0
 29 36  1  0
 29 37  1  0
  9  7  1  6
  7 13  1  0
 10  8  1  6
  8 14  1  0
 37 28  1  1
  4  5  1  0
 33 30  1  6
 30 38  1  0
 34 31  1  1
 31 39  1  0
 35 32  1  6
 32 40  1  0
 41 42  1  0
 41 43  1  0
 15 19  2  0
 16 22  2  0
 12 17  1  1
 17 19  1  0
 17 20  1  0
 18 19  1  0
 18 22  1  0
 18 23  1  0
  9 10  1  0
  9 11  1  0
 10 12  1  0
 11  5  1  1
 33 34  1  0
 33 35  1  0
 34 36  1  0
 35 37  1  0
 36 42  1  1
 20 21  2  0
 21 22  1  0
M  CHG  2   2  -1  26  -1
M  END
>  <COMPND>  (45) 
    8629 

>  <AUTHOR>  (45) 
    GENERATED BY OPEN BABEL 3.1.1

>  <MASTER>  (45) 
        0    0    0    0    0    0    0    0   58    0   58    0

>  <minimizedAffinity>  (45) 
-7.45033

>  <CNNscore>  (45) 
0.5042847395

>  <CNNaffinity>  (45) 
4.1617999077

>  <CNN_VS>  (45) 
2.0987322330

>  <CNNaffinity_variance>  (45) 
0.6673483253

$$$$
46
     RDKit          3D

 43 45  0  0  0  0  0  0  0  0999 V2000
   18.9692   73.4177   -7.4744 P   0  0  2  0  0  0  0  0  0  0  0  0
   18.5480   74.8753   -8.0361 O   0  0  0  0  0  0  0  0  0  0  0  0
   20.1781   73.4061   -6.5857 O   0  0  0  0  0  0  0  0  0  0  0  0
   19.0662   72.5020   -8.8048 O   0  0  0  0  0  0  0  0  0  0  0  0
   19.8705   71.3360   -8.7658 C   0  0  0  0  0  0  0  0  0  0  0  0
   18.8109   69.2710   -8.1441 O   0  0  0  0  0  0  0  0  0  0  0  0
   17.2391   69.5297  -10.6845 O   0  0  0  0  0  0  0  0  0  0  0  0
   15.4630   70.3790   -8.7974 O   0  0  0  0  0  0  0  0  0  0  0  0
   17.6773   70.5484   -9.7870 C   0  0  1  0  0  0  0  0  0  0  0  0
   16.8409   70.5324   -8.5246 C   0  0  2  0  0  0  0  0  0  0  0  0
   19.0520   70.1523   -9.2628 C   0  0  1  0  0  0  0  0  0  0  0  0
   17.4242   69.3465   -7.7752 C   0  0  2  0  0  0  0  0  0  0  0  0
   16.3631   69.7607  -11.0326 H   0  0  0  0  0  0  0  0  0  0  0  0
   15.1390   71.1586   -9.2749 H   0  0  0  0  0  0  0  0  0  0  0  0
   15.0430   69.0166   -6.2922 O   0  0  0  0  0  0  0  0  0  0  0  0
   17.1743   69.9534   -2.3145 O   0  0  0  0  0  0  0  0  0  0  0  0
   17.3282   69.4978   -6.3507 N   0  0  0  0  0  0  0  0  0  0  0  0
   16.1062   69.4831   -4.3128 N   0  0  0  0  0  0  0  0  0  0  0  0
   16.0849   69.3113   -5.7028 C   0  0  0  0  0  0  0  0  0  0  0  0
   18.4589   69.8272   -5.6111 C   0  0  0  0  0  0  0  0  0  0  0  0
   18.4622   69.9887   -4.2863 C   0  0  0  0  0  0  0  0  0  0  0  0
   17.2039   69.8117   -3.5331 C   0  0  0  0  0  0  0  0  0  0  0  0
   15.2513   69.3586   -3.8401 H   0  0  0  0  0  0  0  0  0  0  0  0
   17.6117   72.8933   -6.7706 O   0  0  0  0  0  0  0  0  0  0  0  0
   16.5470   73.6525   -5.8204 P   0  0  2  0  0  0  0  0  0  0  0  0
   17.4110   74.8673   -5.1916 O   0  0  0  0  0  0  0  0  0  0  0  0
   15.8909   72.7668   -4.8011 O   0  0  0  0  0  0  0  0  0  0  0  0
   15.5234   74.3672   -6.8434 O   0  0  0  0  0  0  0  0  0  0  0  0
   13.3331   73.6382   -7.3798 O   0  0  0  0  0  0  0  0  0  0  0  0
   14.3314   75.4236  -10.9669 O   0  0  0  0  0  0  0  0  0  0  0  0
   12.4353   76.6992   -9.2274 O   0  0  0  0  0  0  0  0  0  0  0  0
   16.3238   73.9244   -9.4964 O   0  0  0  0  0  0  0  0  0  0  0  0
   14.3264   75.2696   -9.5450 C   0  0  1  0  0  0  0  0  0  0  0  0
   12.8784   75.3555   -9.0584 C   0  0  1  0  0  0  0  0  0  0  0  0
   14.9342   73.9145   -9.1876 C   0  0  2  0  0  0  0  0  0  0  0  0
   12.7627   74.9357   -7.5869 C   0  0  1  0  0  0  0  0  0  0  0  0
   14.7213   73.5715   -7.7121 C   0  0  1  0  0  0  0  0  0  0  0  0
   13.9472   76.2823  -11.2005 H   0  0  0  0  0  0  0  0  0  0  0  0
   12.5140   76.9520  -10.1607 H   0  0  0  0  0  0  0  0  0  0  0  0
   16.4452   74.1425  -10.4331 H   0  0  0  0  0  0  0  0  0  0  0  0
   10.4851   74.6817   -8.2629 O   0  0  0  0  0  0  0  0  0  0  0  0
   11.3087   74.8625   -7.1257 C   0  0  0  0  0  0  0  0  0  0  0  0
    9.5567   74.6330   -7.9846 H   0  0  0  0  0  0  0  0  0  0  0  0
 25 28  1  0
 25 24  1  0
 25 26  1  1
 25 27  2  0
  1  4  1  0
  1 24  1  0
  1  2  1  6
  1  3  2  0
  6 11  1  0
  6 12  1  0
 29 36  1  0
 29 37  1  0
  9  7  1  6
  7 13  1  0
 10  8  1  6
  8 14  1  0
 37 28  1  1
  4  5  1  0
 33 30  1  6
 30 38  1  0
 34 31  1  1
 31 39  1  0
 35 32  1  1
 32 40  1  0
 41 42  1  0
 41 43  1  0
 15 19  2  0
 16 22  2  0
 12 17  1  1
 17 19  1  0
 17 20  1  0
 18 19  1  0
 18 22  1  0
 18 23  1  0
  9 10  1  0
  9 11  1  0
 10 12  1  0
 11  5  1  1
 33 34  1  0
 33 35  1  0
 34 36  1  0
 35 37  1  0
 36 42  1  6
 20 21  2  0
 21 22  1  0
M  CHG  2   2  -1  26  -1
M  END
>  <COMPND>  (46) 
    8629 

>  <AUTHOR>  (46) 
    GENERATED BY OPEN BABEL 3.1.1

>  <MASTER>  (46) 
        0    0    0    0    0    0    0    0   58    0   58    0

>  <minimizedAffinity>  (46) 
-6.81182

>  <CNNscore>  (46) 
0.4845952690

>  <CNNaffinity>  (46) 
3.9760081768

>  <CNN_VS>  (46) 
1.9267547131

>  <CNNaffinity_variance>  (46) 
0.5615616441

$$$$
47
     RDKit          3D

 43 45  0  0  0  0  0  0  0  0999 V2000
   19.3269   73.3269   -7.3800 P   0  0  2  0  0  0  0  0  0  0  0  0
   19.4523   74.8120   -8.0094 O   0  0  0  0  0  0  0  0  0  0  0  0
   20.4546   72.9245   -6.4757 O   0  0  0  0  0  0  0  0  0  0  0  0
   19.0865   72.3781   -8.6684 O   0  0  0  0  0  0  0  0  0  0  0  0
   19.8791   71.2116   -8.8063 C   0  0  0  0  0  0  0  0  0  0  0  0
   18.7758   69.1740   -8.1700 O   0  0  0  0  0  0  0  0  0  0  0  0
   17.0996   69.5332  -10.6301 O   0  0  0  0  0  0  0  0  0  0  0  0
   15.4433   70.4101   -8.6491 O   0  0  0  0  0  0  0  0  0  0  0  0
   17.6147   70.5197   -9.7374 C   0  0  1  0  0  0  0  0  0  0  0  0
   16.8369   70.5103   -8.4379 C   0  0  2  0  0  0  0  0  0  0  0  0
   18.9969   70.0664   -9.2841 C   0  0  1  0  0  0  0  0  0  0  0  0
   17.4110   69.2914   -7.7359 C   0  0  2  0  0  0  0  0  0  0  0  0
   16.2174   69.8010  -10.9334 H   0  0  0  0  0  0  0  0  0  0  0  0
   15.1259   71.2090   -9.0982 H   0  0  0  0  0  0  0  0  0  0  0  0
   15.1434   68.7907   -6.1281 O   0  0  0  0  0  0  0  0  0  0  0  0
   17.4304   69.8202   -2.2615 O   0  0  0  0  0  0  0  0  0  0  0  0
   17.3859   69.4204   -6.3062 N   0  0  0  0  0  0  0  0  0  0  0  0
   16.2840   69.3035   -4.2041 N   0  0  0  0  0  0  0  0  0  0  0  0
   16.1956   69.1461   -5.5932 C   0  0  0  0  0  0  0  0  0  0  0  0
   18.5328   69.8146   -5.6257 C   0  0  0  0  0  0  0  0  0  0  0  0
   18.6003   69.9612   -4.3008 C   0  0  0  0  0  0  0  0  0  0  0  0
   17.4004   69.6943   -3.4818 C   0  0  0  0  0  0  0  0  0  0  0  0
   15.4669   69.1183   -3.6867 H   0  0  0  0  0  0  0  0  0  0  0  0
   17.8738   73.3536   -6.6723 O   0  0  0  0  0  0  0  0  0  0  0  0
   16.5596   74.2432   -6.9796 P   0  0  2  0  0  0  0  0  0  0  0  0
   15.9640   73.5724   -8.3260 O   0  0  0  0  0  0  0  0  0  0  0  0
   16.8253   75.7168   -7.0871 O   0  0  0  0  0  0  0  0  0  0  0  0
   15.5106   73.8354   -5.8227 O   0  0  0  0  0  0  0  0  0  0  0  0
   14.1658   75.0416   -4.2887 O   0  0  0  0  0  0  0  0  0  0  0  0
   15.6130   72.1266   -1.7472 O   0  0  0  0  0  0  0  0  0  0  0  0
   12.8690   72.0379   -2.5902 O   0  0  0  0  0  0  0  0  0  0  0  0
   17.3402   73.2630   -3.7733 O   0  0  0  0  0  0  0  0  0  0  0  0
   15.1447   72.6557   -2.9906 C   0  0  1  0  0  0  0  0  0  0  0  0
   13.7168   73.1660   -2.7873 C   0  0  1  0  0  0  0  0  0  0  0  0
   16.0654   73.7937   -3.4272 C   0  0  2  0  0  0  0  0  0  0  0  0
   13.2439   73.9852   -3.9958 C   0  0  1  0  0  0  0  0  0  0  0  0
   15.4788   74.5747   -4.6046 C   0  0  1  0  0  0  0  0  0  0  0  0
   15.0330   71.4032   -1.4646 H   0  0  0  0  0  0  0  0  0  0  0  0
   13.1788   71.5290   -1.8246 H   0  0  0  0  0  0  0  0  0  0  0  0
   17.7009   72.7712   -3.0197 H   0  0  0  0  0  0  0  0  0  0  0  0
   10.8933   73.6242   -3.7656 O   0  0  0  0  0  0  0  0  0  0  0  0
   11.8842   74.6352   -3.7495 C   0  0  0  0  0  0  0  0  0  0  0  0
   10.0225   74.0233   -3.6097 H   0  0  0  0  0  0  0  0  0  0  0  0
 25 28  1  0
 25 24  1  0
 25 26  1  6
 25 27  2  0
  1  4  1  0
  1 24  1  0
  1  2  1  6
  1  3  2  0
  6 11  1  0
  6 12  1  0
 29 36  1  0
 29 37  1  0
  9  7  1  6
  7 13  1  0
 10  8  1  6
  8 14  1  0
 37 28  1  6
  4  5  1  0
 33 30  1  1
 30 38  1  0
 34 31  1  6
 31 39  1  0
 35 32  1  6
 32 40  1  0
 41 42  1  0
 41 43  1  0
 15 19  2  0
 16 22  2  0
 12 17  1  1
 17 19  1  0
 17 20  1  0
 18 19  1  0
 18 22  1  0
 18 23  1  0
  9 10  1  0
  9 11  1  0
 10 12  1  0
 11  5  1  1
 33 34  1  0
 33 35  1  0
 34 36  1  0
 35 37  1  0
 36 42  1  1
 20 21  2  0
 21 22  1  0
M  CHG  2   2  -1  26  -1
M  END
>  <COMPND>  (47) 
    8629 

>  <AUTHOR>  (47) 
    GENERATED BY OPEN BABEL 3.1.1

>  <MASTER>  (47) 
        0    0    0    0    0    0    0    0   58    0   58    0

>  <minimizedAffinity>  (47) 
-6.27934

>  <CNNscore>  (47) 
0.4530982375

>  <CNNaffinity>  (47) 
4.0284481049

>  <CNN_VS>  (47) 
1.8252826929

>  <CNNaffinity_variance>  (47) 
0.5127674937

$$$$
48
     RDKit          3D

 43 45  0  0  0  0  0  0  0  0999 V2000
   19.5646   73.4797   -7.7914 P   0  0  2  0  0  0  0  0  0  0  0  0
   18.8323   74.7989   -8.3752 O   0  0  0  0  0  0  0  0  0  0  0  0
   20.9829   73.6863   -7.3474 O   0  0  0  0  0  0  0  0  0  0  0  0
   19.3449   72.3696   -8.9478 O   0  0  0  0  0  0  0  0  0  0  0  0
   19.9802   71.1110   -8.8062 C   0  0  0  0  0  0  0  0  0  0  0  0
   18.7555   69.1326   -8.2063 O   0  0  0  0  0  0  0  0  0  0  0  0
   17.1348   69.6113  -10.6832 O   0  0  0  0  0  0  0  0  0  0  0  0
   15.5047   70.5600   -8.7137 O   0  0  0  0  0  0  0  0  0  0  0  0
   17.6929   70.5578   -9.7733 C   0  0  1  0  0  0  0  0  0  0  0  0
   16.8988   70.5790   -8.4839 C   0  0  2  0  0  0  0  0  0  0  0  0
   19.0412   70.0224   -9.3077 C   0  0  1  0  0  0  0  0  0  0  0  0
   17.3939   69.3225   -7.7882 C   0  0  2  0  0  0  0  0  0  0  0  0
   16.2732   69.9316  -10.9946 H   0  0  0  0  0  0  0  0  0  0  0  0
   15.2388   71.3801   -9.1580 H   0  0  0  0  0  0  0  0  0  0  0  0
   15.0826   68.9257   -6.2139 O   0  0  0  0  0  0  0  0  0  0  0  0
   17.3708   69.7935   -2.3085 O   0  0  0  0  0  0  0  0  0  0  0  0
   17.3572   69.4380   -6.3576 N   0  0  0  0  0  0  0  0  0  0  0  0
   16.2238   69.3579   -4.2706 N   0  0  0  0  0  0  0  0  0  0  0  0
   16.1451   69.2196   -5.6622 C   0  0  0  0  0  0  0  0  0  0  0  0
   18.5145   69.7641   -5.6588 C   0  0  0  0  0  0  0  0  0  0  0  0
   18.5726   69.8935   -4.3317 C   0  0  0  0  0  0  0  0  0  0  0  0
   17.3498   69.6818   -3.5304 C   0  0  0  0  0  0  0  0  0  0  0  0
   15.3915   69.2108   -3.7653 H   0  0  0  0  0  0  0  0  0  0  0  0
   18.5584   72.9921   -6.6239 O   0  0  0  0  0  0  0  0  0  0  0  0
   17.8035   73.8202   -5.4589 P   0  0  2  0  0  0  0  0  0  0  0  0
   18.2877   75.3429   -5.7126 O   0  0  0  0  0  0  0  0  0  0  0  0
   18.0665   73.3097   -4.0718 O   0  0  0  0  0  0  0  0  0  0  0  0
   16.2487   73.8093   -5.8920 O   0  0  0  0  0  0  0  0  0  0  0  0
   15.9003   75.2188   -7.7651 O   0  0  0  0  0  0  0  0  0  0  0  0
   11.9687   74.3344   -6.8646 O   0  0  0  0  0  0  0  0  0  0  0  0
   13.1872   73.1700   -9.1899 O   0  0  0  0  0  0  0  0  0  0  0  0
   13.8778   74.7613   -4.7310 O   0  0  0  0  0  0  0  0  0  0  0  0
   13.3695   74.0711   -6.9819 C   0  0  1  0  0  0  0  0  0  0  0  0
   13.7680   74.2398   -8.4493 C   0  0  1  0  0  0  0  0  0  0  0  0
   14.1376   75.0536   -6.0998 C   0  0  2  0  0  0  0  0  0  0  0  0
   15.2939   74.2364   -8.6129 C   0  0  1  0  0  0  0  0  0  0  0  0
   15.6414   75.0043   -6.3763 C   0  0  1  0  0  0  0  0  0  0  0  0
   11.4752   73.7137   -7.4219 H   0  0  0  0  0  0  0  0  0  0  0  0
   12.2237   73.1831   -9.0778 H   0  0  0  0  0  0  0  0  0  0  0  0
   12.9227   74.7960   -4.5687 H   0  0  0  0  0  0  0  0  0  0  0  0
   16.9424   73.9044  -10.3104 O   0  0  0  0  0  0  0  0  0  0  0  0
   15.7164   74.5605  -10.0442 C   0  0  0  0  0  0  0  0  0  0  0  0
   17.2234   74.1014  -11.2181 H   0  0  0  0  0  0  0  0  0  0  0  0
 25 28  1  0
 25 24  1  0
 25 26  1  1
 25 27  2  0
  1  4  1  0
  1 24  1  0
  1  2  1  6
  1  3  2  0
  6 11  1  0
  6 12  1  0
 29 36  1  0
 29 37  1  0
  9  7  1  6
  7 13  1  0
 10  8  1  6
  8 14  1  0
 37 28  1  6
  4  5  1  0
 33 30  1  6
 30 38  1  0
 34 31  1  6
 31 39  1  0
 35 32  1  1
 32 40  1  0
 41 42  1  0
 41 43  1  0
 15 19  2  0
 16 22  2  0
 12 17  1  1
 17 19  1  0
 17 20  1  0
 18 19  1  0
 18 22  1  0
 18 23  1  0
  9 10  1  0
  9 11  1  0
 10 12  1  0
 11  5  1  1
 33 34  1  0
 33 35  1  0
 34 36  1  0
 35 37  1  0
 36 42  1  6
 20 21  2  0
 21 22  1  0
M  CHG  2   2  -1  26  -1
M  END
>  <COMPND>  (48) 
    8629 

>  <AUTHOR>  (48) 
    GENERATED BY OPEN BABEL 3.1.1

>  <MASTER>  (48) 
        0    0    0    0    0    0    0    0   58    0   58    0

>  <minimizedAffinity>  (48) 
-6.86093

>  <CNNscore>  (48) 
0.4414936900

>  <CNNaffinity>  (48) 
3.9671459198

>  <CNN_VS>  (48) 
1.7514698505

>  <CNNaffinity_variance>  (48) 
0.6835340261

$$$$
49
     RDKit          3D

 43 45  0  0  0  0  0  0  0  0999 V2000
   19.1636   72.3356   -4.6317 P   0  0  2  0  0  0  0  0  0  0  0  0
   19.1556   71.5284   -3.2296 O   0  0  0  0  0  0  0  0  0  0  0  0
   18.1849   73.4699   -4.7155 O   0  0  0  0  0  0  0  0  0  0  0  0
   18.9934   71.1768   -5.7480 O   0  0  0  0  0  0  0  0  0  0  0  0
   18.6681   71.5575   -7.0735 C   0  0  0  0  0  0  0  0  0  0  0  0
   17.4270   69.5174   -6.8064 O   0  0  0  0  0  0  0  0  0  0  0  0
   16.8263   69.7186   -9.7372 O   0  0  0  0  0  0  0  0  0  0  0  0
   14.5244   70.6308   -8.5947 O   0  0  0  0  0  0  0  0  0  0  0  0
   16.9462   70.7580   -8.7674 C   0  0  1  0  0  0  0  0  0  0  0  0
   15.7273   70.7819   -7.8689 C   0  0  2  0  0  0  0  0  0  0  0  0
   18.0512   70.3666   -7.7941 C   0  0  1  0  0  0  0  0  0  0  0  0
   15.9992   69.6125   -6.9378 C   0  0  2  0  0  0  0  0  0  0  0  0
   16.1267   69.9463  -10.3701 H   0  0  0  0  0  0  0  0  0  0  0  0
   14.3962   71.3995   -9.1721 H   0  0  0  0  0  0  0  0  0  0  0  0
   14.7701   67.5701   -5.4227 O   0  0  0  0  0  0  0  0  0  0  0  0
   13.8208   70.4586   -1.9591 O   0  0  0  0  0  0  0  0  0  0  0  0
   15.4228   69.8029   -5.6367 N   0  0  0  0  0  0  0  0  0  0  0  0
   14.2986   69.0100   -3.6992 N   0  0  0  0  0  0  0  0  0  0  0  0
   14.8289   68.7116   -4.9608 C   0  0  0  0  0  0  0  0  0  0  0  0
   15.4502   71.0605   -5.0439 C   0  0  0  0  0  0  0  0  0  0  0  0
   14.9388   71.3288   -3.8406 C   0  0  0  0  0  0  0  0  0  0  0  0
   14.3002   70.2438   -3.0681 C   0  0  0  0  0  0  0  0  0  0  0  0
   13.8794   68.2652   -3.2099 H   0  0  0  0  0  0  0  0  0  0  0  0
   20.7122   72.7701   -4.7922 O   0  0  0  0  0  0  0  0  0  0  0  0
   21.9595   72.6512   -3.7708 P   0  0  2  0  0  0  0  0  0  0  0  0
   23.1580   73.3983   -4.5601 O   0  0  0  0  0  0  0  0  0  0  0  0
   22.2774   71.2459   -3.3488 O   0  0  0  0  0  0  0  0  0  0  0  0
   21.5888   73.6468   -2.5558 O   0  0  0  0  0  0  0  0  0  0  0  0
   22.6885   75.4365   -1.4585 O   0  0  0  0  0  0  0  0  0  0  0  0
   21.2308   73.4333    1.8450 O   0  0  0  0  0  0  0  0  0  0  0  0
   20.0405   75.9260    1.0589 O   0  0  0  0  0  0  0  0  0  0  0  0
   22.2328   71.9399   -0.4234 O   0  0  0  0  0  0  0  0  0  0  0  0
   21.2083   73.9152    0.4986 C   0  0  1  0  0  0  0  0  0  0  0  0
   21.2746   75.4433    0.5351 C   0  0  1  0  0  0  0  0  0  0  0  0
   22.4065   73.3429   -0.2565 C   0  0  2  0  0  0  0  0  0  0  0  0
   21.5230   76.0205   -0.8650 C   0  0  1  0  0  0  0  0  0  0  0  0
   22.5931   74.0195   -1.6157 C   0  0  1  0  0  0  0  0  0  0  0  0
   20.4723   73.7926    2.3298 H   0  0  0  0  0  0  0  0  0  0  0  0
   19.8955   75.5536    1.9430 H   0  0  0  0  0  0  0  0  0  0  0  0
   22.1160   71.5232    0.4441 H   0  0  0  0  0  0  0  0  0  0  0  0
   20.4892   78.1726   -0.7705 O   0  0  0  0  0  0  0  0  0  0  0  0
   21.7495   77.5303   -0.8292 C   0  0  0  0  0  0  0  0  0  0  0  0
   20.6178   79.1341   -0.7469 H   0  0  0  0  0  0  0  0  0  0  0  0
 25 28  1  0
 25 24  1  0
 25 26  1  6
 25 27  2  0
  1  4  1  0
  1 24  1  0
  1  2  1  1
  1  3  2  0
  6 11  1  0
  6 12  1  0
 29 36  1  0
 29 37  1  0
  9  7  1  6
  7 13  1  0
 10  8  1  6
  8 14  1  0
 37 28  1  6
  4  5  1  0
 33 30  1  1
 30 38  1  0
 34 31  1  6
 31 39  1  0
 35 32  1  6
 32 40  1  0
 41 42  1  0
 41 43  1  0
 15 19  2  0
 16 22  2  0
 12 17  1  1
 17 19  1  0
 17 20  1  0
 18 19  1  0
 18 22  1  0
 18 23  1  0
  9 10  1  0
  9 11  1  0
 10 12  1  0
 11  5  1  1
 33 34  1  0
 33 35  1  0
 34 36  1  0
 35 37  1  0
 36 42  1  1
 20 21  2  0
 21 22  1  0
M  CHG  2   2  -1  26  -1
M  END
>  <COMPND>  (49) 
    8629 

>  <AUTHOR>  (49) 
    GENERATED BY OPEN BABEL 3.1.1

>  <MASTER>  (49) 
        0    0    0    0    0    0    0    0   58    0   58    0

>  <minimizedAffinity>  (49) 
-7.32004

>  <CNNscore>  (49) 
0.4395994544

>  <CNNaffinity>  (49) 
4.2232680321

>  <CNN_VS>  (49) 
1.8565462828

>  <CNNaffinity_variance>  (49) 
0.1123329625

$$$$
50
     RDKit          3D

 43 45  0  0  0  0  0  0  0  0999 V2000
   20.7307   73.6135   -6.4524 P   0  0  2  0  0  0  0  0  0  0  0  0
   20.2397   74.7651   -7.4772 O   0  0  0  0  0  0  0  0  0  0  0  0
   22.2160   73.5306   -6.2566 O   0  0  0  0  0  0  0  0  0  0  0  0
   20.0191   72.2705   -7.0075 O   0  0  0  0  0  0  0  0  0  0  0  0
   18.6130   72.2734   -7.1825 C   0  0  0  0  0  0  0  0  0  0  0  0
   17.7223   70.0593   -6.9022 O   0  0  0  0  0  0  0  0  0  0  0  0
   17.0980   70.1417   -9.8338 O   0  0  0  0  0  0  0  0  0  0  0  0
   14.6773   70.6719   -8.6956 O   0  0  0  0  0  0  0  0  0  0  0  0
   17.0458   71.1926   -8.8704 C   0  0  1  0  0  0  0  0  0  0  0  0
   15.8391   71.0222   -7.9714 C   0  0  2  0  0  0  0  0  0  0  0  0
   18.1995   70.9932   -7.8955 C   0  0  1  0  0  0  0  0  0  0  0  0
   16.2982   69.9188   -7.0334 C   0  0  2  0  0  0  0  0  0  0  0  0
   16.3709   70.2479  -10.4677 H   0  0  0  0  0  0  0  0  0  0  0  0
   14.4254   71.4057   -9.2776 H   0  0  0  0  0  0  0  0  0  0  0  0
   13.7706   68.8561   -6.3555 O   0  0  0  0  0  0  0  0  0  0  0  0
   14.0948   70.3693   -2.0143 O   0  0  0  0  0  0  0  0  0  0  0  0
   15.6979   70.0202   -5.7331 N   0  0  0  0  0  0  0  0  0  0  0  0
   13.9341   69.6103   -4.1944 N   0  0  0  0  0  0  0  0  0  0  0  0
   14.4239   69.4529   -5.4973 C   0  0  0  0  0  0  0  0  0  0  0  0
   16.3712   70.6760   -4.7082 C   0  0  0  0  0  0  0  0  0  0  0  0
   15.8898   70.8186   -3.4716 C   0  0  0  0  0  0  0  0  0  0  0  0
   14.5649   70.2548   -3.1420 C   0  0  0  0  0  0  0  0  0  0  0  0
   13.0481   69.2235   -4.0069 H   0  0  0  0  0  0  0  0  0  0  0  0
   19.8923   73.9404   -5.1096 O   0  0  0  0  0  0  0  0  0  0  0  0
   19.7921   73.1516   -3.7022 P   0  0  2  0  0  0  0  0  0  0  0  0
   20.4335   71.7054   -4.0410 O   0  0  0  0  0  0  0  0  0  0  0  0
   18.4070   73.0950   -3.1258 O   0  0  0  0  0  0  0  0  0  0  0  0
   20.8828   73.8690   -2.7532 O   0  0  0  0  0  0  0  0  0  0  0  0
   23.1335   74.4901   -3.1596 O   0  0  0  0  0  0  0  0  0  0  0  0
   23.4914   73.2395    0.7595 O   0  0  0  0  0  0  0  0  0  0  0  0
   23.6249   76.0423    0.1477 O   0  0  0  0  0  0  0  0  0  0  0  0
   21.7542   71.8076   -1.0602 O   0  0  0  0  0  0  0  0  0  0  0  0
   22.8387   73.8416   -0.3616 C   0  0  1  0  0  0  0  0  0  0  0  0
   23.6933   75.0172   -0.8396 C   0  0  1  0  0  0  0  0  0  0  0  0
   22.6881   72.8009   -1.4696 C   0  0  2  0  0  0  0  0  0  0  0  0
   23.2009   75.5456   -2.1936 C   0  0  1  0  0  0  0  0  0  0  0  0
   22.2410   73.4384   -2.7864 C   0  0  1  0  0  0  0  0  0  0  0  0
   23.5897   73.8949    1.4668 H   0  0  0  0  0  0  0  0  0  0  0  0
   23.9381   75.6955    0.9979 H   0  0  0  0  0  0  0  0  0  0  0  0
   22.0487   71.4114   -0.2258 H   0  0  0  0  0  0  0  0  0  0  0  0
   25.4158   76.4418   -2.1919 O   0  0  0  0  0  0  0  0  0  0  0  0
   24.1321   76.6133   -2.7638 C   0  0  0  0  0  0  0  0  0  0  0  0
   26.0192   77.1144   -2.5459 H   0  0  0  0  0  0  0  0  0  0  0  0
 25 28  1  0
 25 24  1  0
 25 26  1  6
 25 27  2  0
  1  4  1  0
  1 24  1  0
  1  2  1  6
  1  3  2  0
  6 11  1  0
  6 12  1  0
 29 36  1  0
 29 37  1  0
  9  7  1  6
  7 13  1  0
 10  8  1  6
  8 14  1  0
 37 28  1  1
  4  5  1  0
 33 30  1  1
 30 38  1  0
 34 31  1  1
 31 39  1  0
 35 32  1  1
 32 40  1  0
 41 42  1  0
 41 43  1  0
 15 19  2  0
 16 22  2  0
 12 17  1  1
 17 19  1  0
 17 20  1  0
 18 19  1  0
 18 22  1  0
 18 23  1  0
  9 10  1  0
  9 11  1  0
 10 12  1  0
 11  5  1  1
 33 34  1  0
 33 35  1  0
 34 36  1  0
 35 37  1  0
 36 42  1  6
 20 21  2  0
 21 22  1  0
M  CHG  2   2  -1  26  -1
M  END
>  <COMPND>  (50) 
    8629 

>  <AUTHOR>  (50) 
    GENERATED BY OPEN BABEL 3.1.1

>  <MASTER>  (50) 
        0    0    0    0    0    0    0    0   58    0   58    0

>  <minimizedAffinity>  (50) 
-6.82913

>  <CNNscore>  (50) 
0.4046223760

>  <CNNaffinity>  (50) 
4.2710161209

>  <CNN_VS>  (50) 
1.7281486988

>  <CNNaffinity_variance>  (50) 
0.1428917497

$$$$
51
     RDKit          3D

 43 45  0  0  0  0  0  0  0  0999 V2000
   22.3742   74.1693   -4.8306 P   0  0  2  0  0  0  0  0  0  0  0  0
   22.9560   72.8475   -4.1013 O   0  0  0  0  0  0  0  0  0  0  0  0
   23.4106   75.1708   -5.2481 O   0  0  0  0  0  0  0  0  0  0  0  0
   21.2447   74.7122   -3.8072 O   0  0  0  0  0  0  0  0  0  0  0  0
   21.5954   75.7390   -2.8958 C   0  0  0  0  0  0  0  0  0  0  0  0
   20.1056   74.3566   -1.6138 O   0  0  0  0  0  0  0  0  0  0  0  0
   21.9935   74.7719    0.6784 O   0  0  0  0  0  0  0  0  0  0  0  0
   22.6700   72.2823   -0.2051 O   0  0  0  0  0  0  0  0  0  0  0  0
   22.2801   74.6281   -0.7117 C   0  0  1  0  0  0  0  0  0  0  0  0
   22.1096   73.1846   -1.1371 C   0  0  2  0  0  0  0  0  0  0  0  0
   21.1724   75.3230   -1.4936 C   0  0  1  0  0  0  0  0  0  0  0  0
   20.5985   73.0612   -1.2345 C   0  0  2  0  0  0  0  0  0  0  0  0
   22.6877   74.3362    1.1982 H   0  0  0  0  0  0  0  0  0  0  0  0
   23.6324   72.3996   -0.1798 H   0  0  0  0  0  0  0  0  0  0  0  0
   21.5639   70.4105   -1.3743 O   0  0  0  0  0  0  0  0  0  0  0  0
   18.9609   69.4624   -5.0576 O   0  0  0  0  0  0  0  0  0  0  0  0
   20.1898   72.1000   -2.2196 N   0  0  0  0  0  0  0  0  0  0  0  0
   20.2669   69.9405   -3.2080 N   0  0  0  0  0  0  0  0  0  0  0  0
   20.7360   70.7954   -2.2025 C   0  0  0  0  0  0  0  0  0  0  0  0
   19.2571   72.4543   -3.1883 C   0  0  0  0  0  0  0  0  0  0  0  0
   18.8212   71.6276   -4.1411 C   0  0  0  0  0  0  0  0  0  0  0  0
   19.3420   70.2463   -4.1938 C   0  0  0  0  0  0  0  0  0  0  0  0
   20.6337   69.0266   -3.2161 H   0  0  0  0  0  0  0  0  0  0  0  0
   21.5004   73.5591   -6.0458 O   0  0  0  0  0  0  0  0  0  0  0  0
   21.2192   74.1181   -7.5363 P   0  0  2  0  0  0  0  0  0  0  0  0
   22.6978   74.1963   -8.1883 O   0  0  0  0  0  0  0  0  0  0  0  0
   20.4562   75.4105   -7.5750 O   0  0  0  0  0  0  0  0  0  0  0  0
   20.4998   72.8935   -8.3029 O   0  0  0  0  0  0  0  0  0  0  0  0
   18.2528   73.2564   -7.6430 O   0  0  0  0  0  0  0  0  0  0  0  0
   17.6437   70.2993  -10.4599 O   0  0  0  0  0  0  0  0  0  0  0  0
   16.8861   73.0043  -11.0573 O   0  0  0  0  0  0  0  0  0  0  0  0
   19.9445   70.1727   -8.7079 O   0  0  0  0  0  0  0  0  0  0  0  0
   18.2802   71.4479   -9.8933 C   0  0  1  0  0  0  0  0  0  0  0  0
   17.2336   72.5546   -9.7506 C   0  0  1  0  0  0  0  0  0  0  0  0
   18.8588   71.0759   -8.5294 C   0  0  2  0  0  0  0  0  0  0  0  0
   17.7711   73.7203   -8.9096 C   0  0  1  0  0  0  0  0  0  0  0  0
   19.3195   72.3122   -7.7551 C   0  0  1  0  0  0  0  0  0  0  0  0
   17.2745   70.5285  -11.3263 H   0  0  0  0  0  0  0  0  0  0  0  0
   16.5486   72.2586  -11.5780 H   0  0  0  0  0  0  0  0  0  0  0  0
   19.6400   69.3943   -9.1990 H   0  0  0  0  0  0  0  0  0  0  0  0
   16.6175   75.6472   -9.7254 O   0  0  0  0  0  0  0  0  0  0  0  0
   16.6931   74.7631   -8.6222 C   0  0  0  0  0  0  0  0  0  0  0  0
   15.9351   76.3162   -9.5567 H   0  0  0  0  0  0  0  0  0  0  0  0
 25 28  1  0
 25 24  1  0
 25 26  1  6
 25 27  2  0
  1  4  1  0
  1 24  1  0
  1  2  1  1
  1  3  2  0
  6 11  1  0
  6 12  1  0
 29 36  1  0
 29 37  1  0
  9  7  1  1
  7 13  1  0
 10  8  1  1
  8 14  1  0
 37 28  1  6
  4  5  1  0
 33 30  1  1
 30 38  1  0
 34 31  1  6
 31 39  1  0
 35 32  1  6
 32 40  1  0
 41 42  1  0
 41 43  1  0
 15 19  2  0
 16 22  2  0
 12 17  1  6
 17 19  1  0
 17 20  1  0
 18 19  1  0
 18 22  1  0
 18 23  1  0
  9 10  1  0
  9 11  1  0
 10 12  1  0
 11  5  1  6
 33 34  1  0
 33 35  1  0
 34 36  1  0
 35 37  1  0
 36 42  1  1
 20 21  2  0
 21 22  1  0
M  CHG  2   2  -1  26  -1
M  END
>  <COMPND>  (51) 
    8629 

>  <AUTHOR>  (51) 
    GENERATED BY OPEN BABEL 3.1.1

>  <MASTER>  (51) 
        0    0    0    0    0    0    0    0   58    0   58    0

>  <minimizedAffinity>  (51) 
-7.83194

>  <CNNscore>  (51) 
0.3982560337

>  <CNNaffinity>  (51) 
3.9481956959

>  <CNN_VS>  (51) 
1.5723927021

>  <CNNaffinity_variance>  (51) 
0.4066455960

$$$$
52
     RDKit          3D

 43 45  0  0  0  0  0  0  0  0999 V2000
   16.6600   70.3478   -7.9233 P   0  0  2  0  0  0  0  0  0  0  0  0
   15.0837   70.2837   -8.2818 O   0  0  0  0  0  0  0  0  0  0  0  0
   17.5427   69.5018   -8.7931 O   0  0  0  0  0  0  0  0  0  0  0  0
   16.7118   70.0198   -6.3397 O   0  0  0  0  0  0  0  0  0  0  0  0
   17.9512   69.6387   -5.7684 C   0  0  0  0  0  0  0  0  0  0  0  0
   19.0816   69.6859   -3.6485 O   0  0  0  0  0  0  0  0  0  0  0  0
   16.3756   70.1034   -2.4262 O   0  0  0  0  0  0  0  0  0  0  0  0
   17.4225   72.6215   -2.4268 O   0  0  0  0  0  0  0  0  0  0  0  0
   16.8932   70.5950   -3.6614 C   0  0  1  0  0  0  0  0  0  0  0  0
   17.8808   71.7150   -3.4092 C   0  0  2  0  0  0  0  0  0  0  0  0
   17.7844   69.5139   -4.2601 C   0  0  1  0  0  0  0  0  0  0  0  0
   19.1177   70.9511   -2.9682 C   0  0  2  0  0  0  0  0  0  0  0  0
   15.8029   70.7765   -2.0251 H   0  0  0  0  0  0  0  0  0  0  0  0
   16.6346   73.0826   -2.7544 H   0  0  0  0  0  0  0  0  0  0  0  0
   21.5959   70.5455   -1.6751 O   0  0  0  0  0  0  0  0  0  0  0  0
   23.7165   73.6188   -4.3768 O   0  0  0  0  0  0  0  0  0  0  0  0
   20.3338   71.6317   -3.3136 N   0  0  0  0  0  0  0  0  0  0  0  0
   22.6498   72.0760   -3.0215 N   0  0  0  0  0  0  0  0  0  0  0  0
   21.5241   71.3562   -2.6011 C   0  0  0  0  0  0  0  0  0  0  0  0
   20.3383   72.5603   -4.3487 C   0  0  0  0  0  0  0  0  0  0  0  0
   21.4199   73.2393   -4.7365 C   0  0  0  0  0  0  0  0  0  0  0  0
   22.7043   73.0102   -4.0438 C   0  0  0  0  0  0  0  0  0  0  0  0
   23.4904   71.9008   -2.5394 H   0  0  0  0  0  0  0  0  0  0  0  0
   16.9809   71.9312   -7.9771 O   0  0  0  0  0  0  0  0  0  0  0  0
   17.7603   72.8194   -9.0800 P   0  0  2  0  0  0  0  0  0  0  0  0
   17.5909   71.9568  -10.4382 O   0  0  0  0  0  0  0  0  0  0  0  0
   19.1832   73.1364   -8.7211 O   0  0  0  0  0  0  0  0  0  0  0  0
   16.8216   74.1139   -9.2995 O   0  0  0  0  0  0  0  0  0  0  0  0
   14.5493   73.4412   -9.2730 O   0  0  0  0  0  0  0  0  0  0  0  0
   14.0510   77.4087  -10.3034 O   0  0  0  0  0  0  0  0  0  0  0  0
   13.3347   76.5282   -7.6653 O   0  0  0  0  0  0  0  0  0  0  0  0
   16.2708   75.9023  -11.3908 O   0  0  0  0  0  0  0  0  0  0  0  0
   14.6675   76.3028   -9.6386 C   0  0  1  0  0  0  0  0  0  0  0  0
   13.6213   75.6389   -8.7411 C   0  0  1  0  0  0  0  0  0  0  0  0
   15.1829   75.3158  -10.6844 C   0  0  2  0  0  0  0  0  0  0  0  0
   14.1269   74.2938   -8.2023 C   0  0  1  0  0  0  0  0  0  0  0  0
   15.6150   73.9933  -10.0484 C   0  0  1  0  0  0  0  0  0  0  0  0
   13.7220   78.0394   -9.6450 H   0  0  0  0  0  0  0  0  0  0  0  0
   13.0169   77.3737   -8.0192 H   0  0  0  0  0  0  0  0  0  0  0  0
   15.9845   76.7385  -11.7890 H   0  0  0  0  0  0  0  0  0  0  0  0
   13.6292   72.4062   -6.8246 O   0  0  0  0  0  0  0  0  0  0  0  0
   13.0425   73.5414   -7.4341 C   0  0  0  0  0  0  0  0  0  0  0  0
   12.9507   71.9177   -6.3318 H   0  0  0  0  0  0  0  0  0  0  0  0
 25 28  1  0
 25 24  1  0
 25 26  1  6
 25 27  2  0
  1  4  1  0
  1 24  1  0
  1  2  1  6
  1  3  2  0
  6 11  1  0
  6 12  1  0
 29 36  1  0
 29 37  1  0
  9  7  1  1
  7 13  1  0
 10  8  1  1
  8 14  1  0
 37 28  1  1
  4  5  1  0
 33 30  1  6
 30 38  1  0
 34 31  1  1
 31 39  1  0
 35 32  1  1
 32 40  1  0
 41 42  1  0
 41 43  1  0
 15 19  2  0
 16 22  2  0
 12 17  1  6
 17 19  1  0
 17 20  1  0
 18 19  1  0
 18 22  1  0
 18 23  1  0
  9 10  1  0
  9 11  1  0
 10 12  1  0
 11  5  1  6
 33 34  1  0
 33 35  1  0
 34 36  1  0
 35 37  1  0
 36 42  1  6
 20 21  2  0
 21 22  1  0
M  CHG  2   2  -1  26  -1
M  END
>  <COMPND>  (52) 
    8629 

>  <AUTHOR>  (52) 
    GENERATED BY OPEN BABEL 3.1.1

>  <MASTER>  (52) 
        0    0    0    0    0    0    0    0   58    0   58    0

>  <minimizedAffinity>  (52) 
-7.12944

>  <CNNscore>  (52) 
0.3848008215

>  <CNNaffinity>  (52) 
4.0797548294

>  <CNN_VS>  (52) 
1.5698930025

>  <CNNaffinity_variance>  (52) 
0.1432576329

$$$$
53
     RDKit          3D

 43 45  0  0  0  0  0  0  0  0999 V2000
   15.6673   70.1767   -3.9344 P   0  0  2  0  0  0  0  0  0  0  0  0
   16.0168   68.7618   -4.6368 O   0  0  0  0  0  0  0  0  0  0  0  0
   14.9906   70.0714   -2.5993 O   0  0  0  0  0  0  0  0  0  0  0  0
   14.8512   70.9850   -5.0740 O   0  0  0  0  0  0  0  0  0  0  0  0
   15.4829   72.0844   -5.7065 C   0  0  0  0  0  0  0  0  0  0  0  0
   16.1649   72.8326   -7.8857 O   0  0  0  0  0  0  0  0  0  0  0  0
   14.4478   70.6286   -8.9742 O   0  0  0  0  0  0  0  0  0  0  0  0
   16.9550   69.5706   -9.1499 O   0  0  0  0  0  0  0  0  0  0  0  0
   15.2491   70.6489   -7.7940 C   0  0  1  0  0  0  0  0  0  0  0  0
   16.7166   70.5433   -8.1530 C   0  0  2  0  0  0  0  0  0  0  0  0
   15.1678   72.0477   -7.1956 C   0  0  1  0  0  0  0  0  0  0  0  0
   17.0276   71.9533   -8.6256 C   0  0  2  0  0  0  0  0  0  0  0  0
   14.4837   69.7450   -9.3740 H   0  0  0  0  0  0  0  0  0  0  0  0
   16.7425   68.6910   -8.8009 H   0  0  0  0  0  0  0  0  0  0  0  0
   19.2220   71.0760  -10.1724 O   0  0  0  0  0  0  0  0  0  0  0  0
   22.2208   73.4404   -7.5920 O   0  0  0  0  0  0  0  0  0  0  0  0
   18.3927   72.3244   -8.3805 N   0  0  0  0  0  0  0  0  0  0  0  0
   20.7134   72.2542   -8.8864 N   0  0  0  0  0  0  0  0  0  0  0  0
   19.4204   71.8280   -9.2159 C   0  0  0  0  0  0  0  0  0  0  0  0
   18.7011   73.1719   -7.3219 C   0  0  0  0  0  0  0  0  0  0  0  0
   19.9395   73.5677   -7.0202 C   0  0  0  0  0  0  0  0  0  0  0  0
   21.0707   73.0944   -7.8438 C   0  0  0  0  0  0  0  0  0  0  0  0
   21.4455   71.9207   -9.4544 H   0  0  0  0  0  0  0  0  0  0  0  0
   17.0964   70.9316   -3.9066 O   0  0  0  0  0  0  0  0  0  0  0  0
   18.5733   70.3948   -3.5275 P   0  0  2  0  0  0  0  0  0  0  0  0
   19.2749   70.1885   -4.9706 O   0  0  0  0  0  0  0  0  0  0  0  0
   18.5788   69.1724   -2.6558 O   0  0  0  0  0  0  0  0  0  0  0  0
   19.3218   71.6745   -2.8895 O   0  0  0  0  0  0  0  0  0  0  0  0
   20.8634   73.2757   -3.7119 O   0  0  0  0  0  0  0  0  0  0  0  0
   22.5972   72.5145   -0.0424 O   0  0  0  0  0  0  0  0  0  0  0  0
   21.2518   75.0131   -0.4840 O   0  0  0  0  0  0  0  0  0  0  0  0
   21.4044   70.3519   -1.5523 O   0  0  0  0  0  0  0  0  0  0  0  0
   21.5152   72.6844   -0.9621 C   0  0  1  0  0  0  0  0  0  0  0  0
   21.5860   74.1038   -1.5288 C   0  0  1  0  0  0  0  0  0  0  0  0
   21.6440   71.6519   -2.0805 C   0  0  2  0  0  0  0  0  0  0  0  0
   20.6262   74.2756   -2.7140 C   0  0  1  0  0  0  0  0  0  0  0  0
   20.6792   71.9426   -3.2314 C   0  0  1  0  0  0  0  0  0  0  0  0
   22.5211   73.1668    0.6705 H   0  0  0  0  0  0  0  0  0  0  0  0
   21.8650   74.8940    0.2583 H   0  0  0  0  0  0  0  0  0  0  0  0
   22.0216   70.1798   -0.8247 H   0  0  0  0  0  0  0  0  0  0  0  0
   19.7858   75.7699   -4.3781 O   0  0  0  0  0  0  0  0  0  0  0  0
   20.7939   75.6328   -3.3936 C   0  0  0  0  0  0  0  0  0  0  0  0
   19.8799   76.6293   -4.8189 H   0  0  0  0  0  0  0  0  0  0  0  0
 25 28  1  0
 25 24  1  0
 25 26  1  6
 25 27  2  0
  1  4  1  0
  1 24  1  0
  1  2  1  6
  1  3  2  0
  6 11  1  0
  6 12  1  0
 29 36  1  0
 29 37  1  0
  9  7  1  6
  7 13  1  0
 10  8  1  6
  8 14  1  0
 37 28  1  1
  4  5  1  0
 33 30  1  1
 30 38  1  0
 34 31  1  1
 31 39  1  0
 35 32  1  1
 32 40  1  0
 41 42  1  0
 41 43  1  0
 15 19  2  0
 16 22  2  0
 12 17  1  1
 17 19  1  0
 17 20  1  0
 18 19  1  0
 18 22  1  0
 18 23  1  0
  9 10  1  0
  9 11  1  0
 10 12  1  0
 11  5  1  1
 33 34  1  0
 33 35  1  0
 34 36  1  0
 35 37  1  0
 36 42  1  6
 20 21  2  0
 21 22  1  0
M  CHG  2   2  -1  26  -1
M  END
>  <COMPND>  (53) 
    8629 

>  <AUTHOR>  (53) 
    GENERATED BY OPEN BABEL 3.1.1

>  <MASTER>  (53) 
        0    0    0    0    0    0    0    0   58    0   58    0

>  <minimizedAffinity>  (53) 
-7.98026

>  <CNNscore>  (53) 
0.3542728126

>  <CNNaffinity>  (53) 
4.0850481987

>  <CNN_VS>  (53) 
1.4472215176

>  <CNNaffinity_variance>  (53) 
0.4262626767

$$$$
54
     RDKit          3D

 43 45  0  0  0  0  0  0  0  0999 V2000
   21.0318   73.1577   -4.9037 P   0  0  2  0  0  0  0  0  0  0  0  0
   20.4847   74.5307   -4.2455 O   0  0  0  0  0  0  0  0  0  0  0  0
   22.1096   73.3337   -5.9327 O   0  0  0  0  0  0  0  0  0  0  0  0
   19.6904   72.4093   -5.4122 O   0  0  0  0  0  0  0  0  0  0  0  0
   19.3045   72.5600   -6.7673 C   0  0  0  0  0  0  0  0  0  0  0  0
   18.6974   70.2548   -6.4651 O   0  0  0  0  0  0  0  0  0  0  0  0
   18.7399   70.0458   -9.4560 O   0  0  0  0  0  0  0  0  0  0  0  0
   16.0758   70.2543   -8.9125 O   0  0  0  0  0  0  0  0  0  0  0  0
   18.3247   71.1351   -8.6335 C   0  0  1  0  0  0  0  0  0  0  0  0
   16.9841   70.8323   -7.9973 C   0  0  2  0  0  0  0  0  0  0  0  0
   19.2472   71.1866   -7.4221 C   0  0  1  0  0  0  0  0  0  0  0  0
   17.3736   69.8798   -6.8797 C   0  0  2  0  0  0  0  0  0  0  0  0
   18.1655   69.9930  -10.2365 H   0  0  0  0  0  0  0  0  0  0  0  0
   15.8589   70.8990   -9.6039 H   0  0  0  0  0  0  0  0  0  0  0  0
   16.2018   67.6550   -5.5932 O   0  0  0  0  0  0  0  0  0  0  0  0
   13.9957   70.3373   -2.5635 O   0  0  0  0  0  0  0  0  0  0  0  0
   16.4894   69.9678   -5.7520 N   0  0  0  0  0  0  0  0  0  0  0  0
   15.1044   68.9924   -4.0856 N   0  0  0  0  0  0  0  0  0  0  0  0
   15.9542   68.7899   -5.1805 C   0  0  0  0  0  0  0  0  0  0  0  0
   16.1614   71.2118   -5.2240 C   0  0  0  0  0  0  0  0  0  0  0  0
   15.3484   71.3879   -4.1803 C   0  0  0  0  0  0  0  0  0  0  0  0
   14.7471   70.2085   -3.5251 C   0  0  0  0  0  0  0  0  0  0  0  0
   14.7195   68.1861   -3.6714 H   0  0  0  0  0  0  0  0  0  0  0  0
   21.4681   72.2853   -3.6148 O   0  0  0  0  0  0  0  0  0  0  0  0
   20.9538   72.3246   -2.0828 P   0  0  2  0  0  0  0  0  0  0  0  0
   21.2102   70.8130   -1.5665 O   0  0  0  0  0  0  0  0  0  0  0  0
   19.5401   72.8032   -1.9204 O   0  0  0  0  0  0  0  0  0  0  0  0
   22.0542   73.2131   -1.3051 O   0  0  0  0  0  0  0  0  0  0  0  0
   21.6023   74.5619    0.5904 O   0  0  0  0  0  0  0  0  0  0  0  0
   24.7947   76.6653   -0.9701 O   0  0  0  0  0  0  0  0  0  0  0  0
   25.1499   75.1184    1.4233 O   0  0  0  0  0  0  0  0  0  0  0  0
   22.8319   75.4926   -2.7454 O   0  0  0  0  0  0  0  0  0  0  0  0
   24.0325   75.4963   -0.6574 C   0  0  1  0  0  0  0  0  0  0  0  0
   23.8750   75.4189    0.8625 C   0  0  1  0  0  0  0  0  0  0  0  0
   22.6671   75.5946   -1.3351 C   0  0  2  0  0  0  0  0  0  0  0  0
   22.8506   74.3474    1.2594 C   0  0  1  0  0  0  0  0  0  0  0  0
   21.7085   74.5129   -0.8338 C   0  0  1  0  0  0  0  0  0  0  0  0
   25.6630   76.6090   -0.5432 H   0  0  0  0  0  0  0  0  0  0  0  0
   25.7876   75.8023    1.1648 H   0  0  0  0  0  0  0  0  0  0  0  0
   23.4405   76.1828   -3.0505 H   0  0  0  0  0  0  0  0  0  0  0  0
   23.6733   73.8050    3.4360 O   0  0  0  0  0  0  0  0  0  0  0  0
   22.5611   74.3605    2.7588 C   0  0  0  0  0  0  0  0  0  0  0  0
   23.5034   73.8071    4.3915 H   0  0  0  0  0  0  0  0  0  0  0  0
 25 28  1  0
 25 24  1  0
 25 26  1  1
 25 27  2  0
  1  4  1  0
  1 24  1  0
  1  2  1  1
  1  3  2  0
  6 11  1  0
  6 12  1  0
 29 36  1  0
 29 37  1  0
  9  7  1  6
  7 13  1  0
 10  8  1  6
  8 14  1  0
 37 28  1  1
  4  5  1  0
 33 30  1  1
 30 38  1  0
 34 31  1  1
 31 39  1  0
 35 32  1  6
 32 40  1  0
 41 42  1  0
 41 43  1  0
 15 19  2  0
 16 22  2  0
 12 17  1  1
 17 19  1  0
 17 20  1  0
 18 19  1  0
 18 22  1  0
 18 23  1  0
  9 10  1  0
  9 11  1  0
 10 12  1  0
 11  5  1  1
 33 34  1  0
 33 35  1  0
 34 36  1  0
 35 37  1  0
 36 42  1  1
 20 21  2  0
 21 22  1  0
M  CHG  2   2  -1  26  -1
M  END
>  <COMPND>  (54) 
    8629 

>  <AUTHOR>  (54) 
    GENERATED BY OPEN BABEL 3.1.1

>  <MASTER>  (54) 
        0    0    0    0    0    0    0    0   58    0   58    0

>  <minimizedAffinity>  (54) 
-6.89310

>  <CNNscore>  (54) 
0.3403185606

>  <CNNaffinity>  (54) 
4.1353797913

>  <CNN_VS>  (54) 
1.4073464870

>  <CNNaffinity_variance>  (54) 
0.0992761031

$$$$
55
     RDKit          3D

 43 45  0  0  0  0  0  0  0  0999 V2000
   16.7418   70.2063   -8.0566 P   0  0  2  0  0  0  0  0  0  0  0  0
   15.1604   70.3636   -8.3597 O   0  0  0  0  0  0  0  0  0  0  0  0
   17.4786   69.2929   -8.9917 O   0  0  0  0  0  0  0  0  0  0  0  0
   16.7989   69.8034   -6.4906 O   0  0  0  0  0  0  0  0  0  0  0  0
   18.0663   69.6953   -5.8661 C   0  0  0  0  0  0  0  0  0  0  0  0
   19.1531   69.7478   -3.7237 O   0  0  0  0  0  0  0  0  0  0  0  0
   16.4225   70.1669   -2.5579 O   0  0  0  0  0  0  0  0  0  0  0  0
   17.4682   72.6854   -2.5428 O   0  0  0  0  0  0  0  0  0  0  0  0
   16.9650   70.6559   -3.7834 C   0  0  1  0  0  0  0  0  0  0  0  0
   17.9468   71.7770   -3.5136 C   0  0  2  0  0  0  0  0  0  0  0  0
   17.8687   69.5739   -4.3613 C   0  0  1  0  0  0  0  0  0  0  0  0
   19.1748   71.0146   -3.0457 C   0  0  2  0  0  0  0  0  0  0  0  0
   15.8414   70.8407   -2.1701 H   0  0  0  0  0  0  0  0  0  0  0  0
   16.6870   73.1455   -2.8876 H   0  0  0  0  0  0  0  0  0  0  0  0
   21.6130   70.6534   -1.6663 O   0  0  0  0  0  0  0  0  0  0  0  0
   23.8010   73.6791   -4.3680 O   0  0  0  0  0  0  0  0  0  0  0  0
   20.3975   71.6949   -3.3677 N   0  0  0  0  0  0  0  0  0  0  0  0
   22.7005   72.1601   -3.0128 N   0  0  0  0  0  0  0  0  0  0  0  0
   21.5661   71.4428   -2.6120 C   0  0  0  0  0  0  0  0  0  0  0  0
   20.4296   72.6004   -4.4227 C   0  0  0  0  0  0  0  0  0  0  0  0
   21.5191   73.2773   -4.7914 C   0  0  0  0  0  0  0  0  0  0  0  0
   22.7822   73.0717   -4.0535 C   0  0  0  0  0  0  0  0  0  0  0  0
   23.5263   72.0009   -2.5005 H   0  0  0  0  0  0  0  0  0  0  0  0
   17.2659   71.7354   -8.0577 O   0  0  0  0  0  0  0  0  0  0  0  0
   18.3062   72.5003   -9.0302 P   0  0  2  0  0  0  0  0  0  0  0  0
   17.3429   73.2099  -10.1192 O   0  0  0  0  0  0  0  0  0  0  0  0
   19.3616   71.6121   -9.6227 O   0  0  0  0  0  0  0  0  0  0  0  0
   18.8795   73.7174   -8.1387 O   0  0  0  0  0  0  0  0  0  0  0  0
   16.9423   74.8301   -7.3477 O   0  0  0  0  0  0  0  0  0  0  0  0
   19.8280   77.1459   -5.5145 O   0  0  0  0  0  0  0  0  0  0  0  0
   18.2501   75.3363   -3.9386 O   0  0  0  0  0  0  0  0  0  0  0  0
   20.2602   76.1597   -8.2016 O   0  0  0  0  0  0  0  0  0  0  0  0
   19.2564   75.9377   -6.0234 C   0  0  1  0  0  0  0  0  0  0  0  0
   17.9406   75.6818   -5.2858 C   0  0  1  0  0  0  0  0  0  0  0  0
   19.0106   76.0947   -7.5228 C   0  0  2  0  0  0  0  0  0  0  0  0
   17.1398   74.5570   -5.9555 C   0  0  1  0  0  0  0  0  0  0  0  0
   18.1639   74.9485   -8.0794 C   0  0  1  0  0  0  0  0  0  0  0  0
   19.9870   77.0527   -4.5629 H   0  0  0  0  0  0  0  0  0  0  0  0
   18.7562   76.0546   -3.5273 H   0  0  0  0  0  0  0  0  0  0  0  0
   20.7866   76.8893   -7.8404 H   0  0  0  0  0  0  0  0  0  0  0  0
   14.7968   74.9473   -6.2138 O   0  0  0  0  0  0  0  0  0  0  0  0
   15.7554   74.3915   -5.3326 C   0  0  0  0  0  0  0  0  0  0  0  0
   13.9107   74.8488   -5.8305 H   0  0  0  0  0  0  0  0  0  0  0  0
 25 28  1  0
 25 24  1  0
 25 26  1  6
 25 27  2  0
  1  4  1  0
  1 24  1  0
  1  2  1  6
  1  3  2  0
  6 11  1  0
  6 12  1  0
 29 36  1  0
 29 37  1  0
  9  7  1  1
  7 13  1  0
 10  8  1  1
  8 14  1  0
 37 28  1  1
  4  5  1  0
 33 30  1  1
 30 38  1  0
 34 31  1  1
 31 39  1  0
 35 32  1  6
 32 40  1  0
 41 42  1  0
 41 43  1  0
 15 19  2  0
 16 22  2  0
 12 17  1  6
 17 19  1  0
 17 20  1  0
 18 19  1  0
 18 22  1  0
 18 23  1  0
  9 10  1  0
  9 11  1  0
 10 12  1  0
 11  5  1  6
 33 34  1  0
 33 35  1  0
 34 36  1  0
 35 37  1  0
 36 42  1  1
 20 21  2  0
 21 22  1  0
M  CHG  2   2  -1  26  -1
M  END
>  <COMPND>  (55) 
    8629 

>  <AUTHOR>  (55) 
    GENERATED BY OPEN BABEL 3.1.1

>  <MASTER>  (55) 
        0    0    0    0    0    0    0    0   58    0   58    0

>  <minimizedAffinity>  (55) 
-6.32813

>  <CNNscore>  (55) 
0.3386173248

>  <CNNaffinity>  (55) 
3.9306106567

>  <CNN_VS>  (55) 
1.3309729099

>  <CNNaffinity_variance>  (55) 
0.2542637885

$$$$
56
     RDKit          3D

 43 45  0  0  0  0  0  0  0  0999 V2000
   21.1308   73.8309   -7.1818 P   0  0  2  0  0  0  0  0  0  0  0  0
   20.3255   75.1657   -7.6146 O   0  0  0  0  0  0  0  0  0  0  0  0
   22.4022   73.5842   -7.9394 O   0  0  0  0  0  0  0  0  0  0  0  0
   20.0188   72.6593   -7.2747 O   0  0  0  0  0  0  0  0  0  0  0  0
   19.0080   72.7632   -8.2623 C   0  0  0  0  0  0  0  0  0  0  0  0
   18.6405   70.4634   -7.6710 O   0  0  0  0  0  0  0  0  0  0  0  0
   17.3452   70.1739  -10.3598 O   0  0  0  0  0  0  0  0  0  0  0  0
   15.2018   70.3809   -8.6866 O   0  0  0  0  0  0  0  0  0  0  0  0
   17.3224   71.2824   -9.4620 C   0  0  1  0  0  0  0  0  0  0  0  0
   16.4131   70.9889   -8.2870 C   0  0  2  0  0  0  0  0  0  0  0  0
   18.6882   71.3723   -8.7926 C   0  0  1  0  0  0  0  0  0  0  0  0
   17.2778   70.0693   -7.4415 C   0  0  2  0  0  0  0  0  0  0  0  0
   16.4835   70.0965  -10.7996 H   0  0  0  0  0  0  0  0  0  0  0  0
   14.6875   71.0053   -9.2216 H   0  0  0  0  0  0  0  0  0  0  0  0
   15.1305   68.7716   -6.1441 O   0  0  0  0  0  0  0  0  0  0  0  0
   16.2674   70.5777   -2.0591 O   0  0  0  0  0  0  0  0  0  0  0  0
   16.9895   70.1825   -6.0395 N   0  0  0  0  0  0  0  0  0  0  0  0
   15.6985   69.6718   -4.1111 N   0  0  0  0  0  0  0  0  0  0  0  0
   15.8865   69.4905   -5.4872 C   0  0  0  0  0  0  0  0  0  0  0  0
   17.7962   70.9725   -5.2277 C   0  0  0  0  0  0  0  0  0  0  0  0
   17.6026   71.1360   -3.9174 C   0  0  0  0  0  0  0  0  0  0  0  0
   16.4719   70.4474   -3.2620 C   0  0  0  0  0  0  0  0  0  0  0  0
   14.9359   69.1996   -3.7045 H   0  0  0  0  0  0  0  0  0  0  0  0
   21.3236   74.0233   -5.5884 O   0  0  0  0  0  0  0  0  0  0  0  0
   22.5699   74.5930   -4.7311 P   0  0  2  0  0  0  0  0  0  0  0  0
   23.0411   75.8888   -5.5776 O   0  0  0  0  0  0  0  0  0  0  0  0
   23.6565   73.5873   -4.4822 O   0  0  0  0  0  0  0  0  0  0  0  0
   21.9018   75.2008   -3.3935 O   0  0  0  0  0  0  0  0  0  0  0  0
   20.4361   73.3969   -2.9307 O   0  0  0  0  0  0  0  0  0  0  0  0
   20.1788   75.3973    0.6725 O   0  0  0  0  0  0  0  0  0  0  0  0
   21.6216   72.9183    0.5269 O   0  0  0  0  0  0  0  0  0  0  0  0
   20.3272   76.8925   -1.8017 O   0  0  0  0  0  0  0  0  0  0  0  0
   20.8269   74.9217   -0.5103 C   0  0  1  0  0  0  0  0  0  0  0  0
   20.7660   73.3930   -0.5089 C   0  0  1  0  0  0  0  0  0  0  0  0
   20.1093   75.4873   -1.7344 C   0  0  2  0  0  0  0  0  0  0  0  0
   21.1998   72.8200   -1.8649 C   0  0  1  0  0  0  0  0  0  0  0  0
   20.5799   74.8154   -3.0256 C   0  0  1  0  0  0  0  0  0  0  0  0
   20.6300   75.0422    1.4535 H   0  0  0  0  0  0  0  0  0  0  0  0
   21.3371   73.2878    1.3776 H   0  0  0  0  0  0  0  0  0  0  0  0
   20.0249   77.3062   -0.9787 H   0  0  0  0  0  0  0  0  0  0  0  0
   21.9530   70.6853   -1.1003 O   0  0  0  0  0  0  0  0  0  0  0  0
   20.9969   71.3082   -1.9383 C   0  0  0  0  0  0  0  0  0  0  0  0
   21.8356   69.7227   -1.1368 H   0  0  0  0  0  0  0  0  0  0  0  0
 25 28  1  0
 25 24  1  0
 25 26  1  6
 25 27  2  0
  1  4  1  0
  1 24  1  0
  1  2  1  6
  1  3  2  0
  6 11  1  0
  6 12  1  0
 29 36  1  0
 29 37  1  0
  9  7  1  6
  7 13  1  0
 10  8  1  6
  8 14  1  0
 37 28  1  1
  4  5  1  0
 33 30  1  1
 30 38  1  0
 34 31  1  1
 31 39  1  0
 35 32  1  6
 32 40  1  0
 41 42  1  0
 41 43  1  0
 15 19  2  0
 16 22  2  0
 12 17  1  1
 17 19  1  0
 17 20  1  0
 18 19  1  0
 18 22  1  0
 18 23  1  0
  9 10  1  0
  9 11  1  0
 10 12  1  0
 11  5  1  1
 33 34  1  0
 33 35  1  0
 34 36  1  0
 35 37  1  0
 36 42  1  1
 20 21  2  0
 21 22  1  0
M  CHG  2   2  -1  26  -1
M  END
>  <COMPND>  (56) 
    8629 

>  <AUTHOR>  (56) 
    GENERATED BY OPEN BABEL 3.1.1

>  <MASTER>  (56) 
        0    0    0    0    0    0    0    0   58    0   58    0

>  <minimizedAffinity>  (56) 
-7.48902

>  <CNNscore>  (56) 
0.3329749405

>  <CNNaffinity>  (56) 
3.8816478252

>  <CNN_VS>  (56) 
1.2924914360

>  <CNNaffinity_variance>  (56) 
0.8024049997

$$$$
57
     RDKit          3D

 43 45  0  0  0  0  0  0  0  0999 V2000
   21.0117   73.6921   -6.4368 P   0  0  2  0  0  0  0  0  0  0  0  0
   20.8408   75.1199   -5.6955 O   0  0  0  0  0  0  0  0  0  0  0  0
   22.2803   73.5335   -7.2222 O   0  0  0  0  0  0  0  0  0  0  0  0
   19.6393   73.5241   -7.2773 O   0  0  0  0  0  0  0  0  0  0  0  0
   19.6735   72.7877   -8.4874 C   0  0  0  0  0  0  0  0  0  0  0  0
   18.3016   71.1990   -7.3179 O   0  0  0  0  0  0  0  0  0  0  0  0
   19.4919   69.1231   -9.1248 O   0  0  0  0  0  0  0  0  0  0  0  0
   17.0540   69.5727  -10.2609 O   0  0  0  0  0  0  0  0  0  0  0  0
   19.1450   70.4769   -9.4115 C   0  0  1  0  0  0  0  0  0  0  0  0
   17.6414   70.6227   -9.5199 C   0  0  2  0  0  0  0  0  0  0  0  0
   19.4574   71.3129   -8.1767 C   0  0  1  0  0  0  0  0  0  0  0  0
   17.2183   70.6165   -8.0608 C   0  0  2  0  0  0  0  0  0  0  0  0
   19.3015   68.5697   -9.8990 H   0  0  0  0  0  0  0  0  0  0  0  0
   17.3539   69.6197  -11.1821 H   0  0  0  0  0  0  0  0  0  0  0  0
   14.9979   69.7183   -6.5638 O   0  0  0  0  0  0  0  0  0  0  0  0
   12.7084   73.6586   -7.2512 O   0  0  0  0  0  0  0  0  0  0  0  0
   16.0287   71.3872   -7.8322 N   0  0  0  0  0  0  0  0  0  0  0  0
   13.8598   71.6811   -6.9071 N   0  0  0  0  0  0  0  0  0  0  0  0
   14.9708   70.8432   -7.0671 C   0  0  0  0  0  0  0  0  0  0  0  0
   15.9197   72.6676   -8.3639 C   0  0  0  0  0  0  0  0  0  0  0  0
   14.8529   73.4533   -8.2033 C   0  0  0  0  0  0  0  0  0  0  0  0
   13.7037   72.9603   -7.4168 C   0  0  0  0  0  0  0  0  0  0  0  0
   13.1103   71.3230   -6.3780 H   0  0  0  0  0  0  0  0  0  0  0  0
   20.8307   72.6320   -5.2300 O   0  0  0  0  0  0  0  0  0  0  0  0
   19.9361   72.6970   -3.8852 P   0  0  2  0  0  0  0  0  0  0  0  0
   19.8624   71.1512   -3.4135 O   0  0  0  0  0  0  0  0  0  0  0  0
   18.5981   73.3533   -4.0673 O   0  0  0  0  0  0  0  0  0  0  0  0
   20.8884   73.4109   -2.7951 O   0  0  0  0  0  0  0  0  0  0  0  0
   23.0895   74.2035   -3.1742 O   0  0  0  0  0  0  0  0  0  0  0  0
   23.4180   73.2315    0.8255 O   0  0  0  0  0  0  0  0  0  0  0  0
   23.3288   75.9924    0.0400 O   0  0  0  0  0  0  0  0  0  0  0  0
   21.8762   71.5423   -0.9490 O   0  0  0  0  0  0  0  0  0  0  0  0
   22.7549   73.7035   -0.3504 C   0  0  1  0  0  0  0  0  0  0  0  0
   23.5203   74.9190   -0.8773 C   0  0  1  0  0  0  0  0  0  0  0  0
   22.7339   72.5878   -1.3936 C   0  0  2  0  0  0  0  0  0  0  0  0
   23.0313   75.3179   -2.2762 C   0  0  1  0  0  0  0  0  0  0  0  0
   22.2793   73.1015   -2.7609 C   0  0  1  0  0  0  0  0  0  0  0  0
   23.4344   73.9350    1.4921 H   0  0  0  0  0  0  0  0  0  0  0  0
   23.6412   75.7274    0.9194 H   0  0  0  0  0  0  0  0  0  0  0  0
   22.1747   71.2256   -0.0828 H   0  0  0  0  0  0  0  0  0  0  0  0
   23.4446   77.6694   -2.3690 O   0  0  0  0  0  0  0  0  0  0  0  0
   23.8855   76.4273   -2.8859 C   0  0  0  0  0  0  0  0  0  0  0  0
   23.9795   78.3848   -2.7481 H   0  0  0  0  0  0  0  0  0  0  0  0
 25 28  1  0
 25 24  1  0
 25 26  1  1
 25 27  2  0
  1  4  1  0
  1 24  1  0
  1  2  1  1
  1  3  2  0
  6 11  1  0
  6 12  1  0
 29 36  1  0
 29 37  1  0
  9  7  1  1
  7 13  1  0
 10  8  1  6
  8 14  1  0
 37 28  1  1
  4  5  1  0
 33 30  1  1
 30 38  1  0
 34 31  1  1
 31 39  1  0
 35 32  1  1
 32 40  1  0
 41 42  1  0
 41 43  1  0
 15 19  2  0
 16 22  2  0
 12 17  1  6
 17 19  1  0
 17 20  1  0
 18 19  1  0
 18 22  1  0
 18 23  1  0
  9 10  1  0
  9 11  1  0
 10 12  1  0
 11  5  1  6
 33 34  1  0
 33 35  1  0
 34 36  1  0
 35 37  1  0
 36 42  1  6
 20 21  2  0
 21 22  1  0
M  CHG  2   2  -1  26  -1
M  END
>  <COMPND>  (57) 
    8629 

>  <AUTHOR>  (57) 
    GENERATED BY OPEN BABEL 3.1.1

>  <MASTER>  (57) 
        0    0    0    0    0    0    0    0   58    0   58    0

>  <minimizedAffinity>  (57) 
-7.06219

>  <CNNscore>  (57) 
0.3285450935

>  <CNNaffinity>  (57) 
3.9703674316

>  <CNN_VS>  (57) 
1.3044447899

>  <CNNaffinity_variance>  (57) 
0.2703684568

$$$$
58
     RDKit          3D

 43 45  0  0  0  0  0  0  0  0999 V2000
   21.3015   72.7344   -3.3439 P   0  0  2  0  0  0  0  0  0  0  0  0
   22.6845   72.6654   -4.1806 O   0  0  0  0  0  0  0  0  0  0  0  0
   21.3959   72.2604   -1.9233 O   0  0  0  0  0  0  0  0  0  0  0  0
   20.2422   71.9458   -4.2787 O   0  0  0  0  0  0  0  0  0  0  0  0
   19.6043   70.7942   -3.7546 C   0  0  0  0  0  0  0  0  0  0  0  0
   17.5891   71.6579   -4.7380 O   0  0  0  0  0  0  0  0  0  0  0  0
   16.1342   70.2935   -2.4991 O   0  0  0  0  0  0  0  0  0  0  0  0
   15.7674   68.5725   -4.5824 O   0  0  0  0  0  0  0  0  0  0  0  0
   17.2971   69.8708   -3.2093 C   0  0  1  0  0  0  0  0  0  0  0  0
   16.9208   69.3886   -4.5947 C   0  0  2  0  0  0  0  0  0  0  0  0
   18.1329   71.1066   -3.5187 C   0  0  1  0  0  0  0  0  0  0  0  0
   16.7033   70.6971   -5.3355 C   0  0  2  0  0  0  0  0  0  0  0  0
   15.5847   69.5213   -2.2901 H   0  0  0  0  0  0  0  0  0  0  0  0
   15.9564   67.7526   -4.0999 H   0  0  0  0  0  0  0  0  0  0  0  0
   14.8264   69.9925   -7.3251 O   0  0  0  0  0  0  0  0  0  0  0  0
   17.9774   70.3198  -10.6725 O   0  0  0  0  0  0  0  0  0  0  0  0
   17.0059   70.5910   -6.7350 N   0  0  0  0  0  0  0  0  0  0  0  0
   16.3968   70.1562   -8.9903 N   0  0  0  0  0  0  0  0  0  0  0  0
   15.9913   70.2294   -7.6515 C   0  0  0  0  0  0  0  0  0  0  0  0
   18.2967   70.8446   -7.1860 C   0  0  0  0  0  0  0  0  0  0  0  0
   18.6675   70.7692   -8.4659 C   0  0  0  0  0  0  0  0  0  0  0  0
   17.6676   70.3977   -9.4877 C   0  0  0  0  0  0  0  0  0  0  0  0
   15.7068   69.9057   -9.6467 H   0  0  0  0  0  0  0  0  0  0  0  0
   20.8531   74.2785   -3.5095 O   0  0  0  0  0  0  0  0  0  0  0  0
   19.3929   74.9705   -3.4656 P   0  0  2  0  0  0  0  0  0  0  0  0
   19.7289   76.5290   -3.1907 O   0  0  0  0  0  0  0  0  0  0  0  0
   18.4502   74.3556   -2.4719 O   0  0  0  0  0  0  0  0  0  0  0  0
   18.8748   74.9285   -4.9936 O   0  0  0  0  0  0  0  0  0  0  0  0
   18.1796   76.6549   -6.4608 O   0  0  0  0  0  0  0  0  0  0  0  0
   15.4519   73.7440   -7.5275 O   0  0  0  0  0  0  0  0  0  0  0  0
   17.5931   74.4069   -9.3229 O   0  0  0  0  0  0  0  0  0  0  0  0
   16.2177   74.0583   -4.7536 O   0  0  0  0  0  0  0  0  0  0  0  0
   16.7212   74.2469   -7.1014 C   0  0  1  0  0  0  0  0  0  0  0  0
   17.2508   75.1904   -8.1831 C   0  0  1  0  0  0  0  0  0  0  0  0
   16.5451   74.9903   -5.7787 C   0  0  2  0  0  0  0  0  0  0  0  0
   18.4737   75.9727   -7.6855 C   0  0  1  0  0  0  0  0  0  0  0  0
   17.8026   75.7748   -5.4000 C   0  0  1  0  0  0  0  0  0  0  0  0
   15.5567   73.2705   -8.3666 H   0  0  0  0  0  0  0  0  0  0  0  0
   16.8124   73.9176   -9.6268 H   0  0  0  0  0  0  0  0  0  0  0  0
   15.4199   73.5683   -5.0051 H   0  0  0  0  0  0  0  0  0  0  0  0
   20.3374   77.0702   -8.7008 O   0  0  0  0  0  0  0  0  0  0  0  0
   18.9222   77.0322   -8.6897 C   0  0  0  0  0  0  0  0  0  0  0  0
   20.6373   77.7400   -9.3358 H   0  0  0  0  0  0  0  0  0  0  0  0
 25 28  1  0
 25 24  1  0
 25 26  1  1
 25 27  2  0
  1  4  1  0
  1 24  1  0
  1  2  1  6
  1  3  2  0
  6 11  1  0
  6 12  1  0
 29 36  1  0
 29 37  1  0
  9  7  1  1
  7 13  1  0
 10  8  1  1
  8 14  1  0
 37 28  1  6
  4  5  1  0
 33 30  1  6
 30 38  1  0
 34 31  1  6
 31 39  1  0
 35 32  1  1
 32 40  1  0
 41 42  1  0
 41 43  1  0
 15 19  2  0
 16 22  2  0
 12 17  1  6
 17 19  1  0
 17 20  1  0
 18 19  1  0
 18 22  1  0
 18 23  1  0
  9 10  1  0
  9 11  1  0
 10 12  1  0
 11  5  1  6
 33 34  1  0
 33 35  1  0
 34 36  1  0
 35 37  1  0
 36 42  1  6
 20 21  2  0
 21 22  1  0
M  CHG  2   2  -1  26  -1
M  END
>  <COMPND>  (58) 
    8629 

>  <AUTHOR>  (58) 
    GENERATED BY OPEN BABEL 3.1.1

>  <MASTER>  (58) 
        0    0    0    0    0    0    0    0   58    0   58    0

>  <minimizedAffinity>  (58) 
-5.80940

>  <CNNscore>  (58) 
0.3283566236

>  <CNNaffinity>  (58) 
3.9748520851

>  <CNN_VS>  (58) 
1.3051689863

>  <CNNaffinity_variance>  (58) 
0.3494607508

$$$$
59
     RDKit          3D

 43 45  0  0  0  0  0  0  0  0999 V2000
   16.5270   70.2935   -8.1828 P   0  0  2  0  0  0  0  0  0  0  0  0
   14.9271   70.4980   -8.3080 O   0  0  0  0  0  0  0  0  0  0  0  0
   17.1532   69.4999   -9.2917 O   0  0  0  0  0  0  0  0  0  0  0  0
   16.7268   69.6968   -6.6922 O   0  0  0  0  0  0  0  0  0  0  0  0
   17.9988   69.8193   -6.0798 C   0  0  0  0  0  0  0  0  0  0  0  0
   19.1627   69.6865   -3.9819 O   0  0  0  0  0  0  0  0  0  0  0  0
   16.4734   69.9657   -2.6856 O   0  0  0  0  0  0  0  0  0  0  0  0
   17.4990   72.4837   -2.4750 O   0  0  0  0  0  0  0  0  0  0  0  0
   16.9668   70.5715   -3.8793 C   0  0  1  0  0  0  0  0  0  0  0  0
   17.9490   71.6740   -3.5421 C   0  0  2  0  0  0  0  0  0  0  0  0
   17.8573   69.5576   -4.5866 C   0  0  1  0  0  0  0  0  0  0  0  0
   19.1992   70.8856   -3.1908 C   0  0  2  0  0  0  0  0  0  0  0  0
   15.9016   70.5943   -2.2167 H   0  0  0  0  0  0  0  0  0  0  0  0
   16.7021   72.9647   -2.7477 H   0  0  0  0  0  0  0  0  0  0  0  0
   21.7043   70.3799   -1.9881 O   0  0  0  0  0  0  0  0  0  0  0  0
   23.7520   73.7147   -4.4227 O   0  0  0  0  0  0  0  0  0  0  0  0
   20.4039   71.6063   -3.4920 N   0  0  0  0  0  0  0  0  0  0  0  0
   22.7219   72.0407   -3.2014 N   0  0  0  0  0  0  0  0  0  0  0  0
   21.6094   71.2744   -2.8310 C   0  0  0  0  0  0  0  0  0  0  0  0
   20.3823   72.6294   -4.4337 C   0  0  0  0  0  0  0  0  0  0  0  0
   21.4516   73.3514   -4.7748 C   0  0  0  0  0  0  0  0  0  0  0  0
   22.7505   73.0684   -4.1307 C   0  0  0  0  0  0  0  0  0  0  0  0
   23.5727   71.8275   -2.7537 H   0  0  0  0  0  0  0  0  0  0  0  0
   17.0773   71.8071   -8.0451 O   0  0  0  0  0  0  0  0  0  0  0  0
   17.9361   72.7213   -9.0647 P   0  0  2  0  0  0  0  0  0  0  0  0
   17.4028   72.2560  -10.5195 O   0  0  0  0  0  0  0  0  0  0  0  0
   19.4228   72.6120   -8.8861 O   0  0  0  0  0  0  0  0  0  0  0  0
   17.3472   74.2116   -8.8722 O   0  0  0  0  0  0  0  0  0  0  0  0
   16.4278   75.6133   -7.1968 O   0  0  0  0  0  0  0  0  0  0  0  0
   13.3792   75.8181   -9.9743 O   0  0  0  0  0  0  0  0  0  0  0  0
   15.0868   78.0920   -9.5729 O   0  0  0  0  0  0  0  0  0  0  0  0
   14.7726   73.3179   -9.5413 O   0  0  0  0  0  0  0  0  0  0  0  0
   14.7369   75.7263   -9.5342 C   0  0  1  0  0  0  0  0  0  0  0  0
   15.0550   76.9676   -8.6983 C   0  0  1  0  0  0  0  0  0  0  0  0
   14.9064   74.4582   -8.6996 C   0  0  2  0  0  0  0  0  0  0  0  0
   16.3987   76.8171   -7.9724 C   0  0  1  0  0  0  0  0  0  0  0  0
   16.2567   74.4312   -7.9811 C   0  0  1  0  0  0  0  0  0  0  0  0
   13.2649   76.6209  -10.5052 H   0  0  0  0  0  0  0  0  0  0  0  0
   14.2327   78.1755  -10.0254 H   0  0  0  0  0  0  0  0  0  0  0  0
   13.9137   73.3466   -9.9902 H   0  0  0  0  0  0  0  0  0  0  0  0
   15.4262   78.5929   -6.7036 O   0  0  0  0  0  0  0  0  0  0  0  0
   16.6619   77.9739   -7.0107 C   0  0  0  0  0  0  0  0  0  0  0  0
   15.5782   79.3309   -6.0920 H   0  0  0  0  0  0  0  0  0  0  0  0
 25 28  1  0
 25 24  1  0
 25 26  1  6
 25 27  2  0
  1  4  1  0
  1 24  1  0
  1  2  1  6
  1  3  2  0
  6 11  1  0
  6 12  1  0
 29 36  1  0
 29 37  1  0
  9  7  1  1
  7 13  1  0
 10  8  1  1
  8 14  1  0
 37 28  1  6
  4  5  1  0
 33 30  1  1
 30 38  1  0
 34 31  1  6
 31 39  1  0
 35 32  1  6
 32 40  1  0
 41 42  1  0
 41 43  1  0
 15 19  2  0
 16 22  2  0
 12 17  1  6
 17 19  1  0
 17 20  1  0
 18 19  1  0
 18 22  1  0
 18 23  1  0
  9 10  1  0
  9 11  1  0
 10 12  1  0
 11  5  1  6
 33 34  1  0
 33 35  1  0
 34 36  1  0
 35 37  1  0
 36 42  1  1
 20 21  2  0
 21 22  1  0
M  CHG  2   2  -1  26  -1
M  END
>  <COMPND>  (59) 
    8629 

>  <AUTHOR>  (59) 
    GENERATED BY OPEN BABEL 3.1.1

>  <MASTER>  (59) 
        0    0    0    0    0    0    0    0   58    0   58    0

>  <minimizedAffinity>  (59) 
-6.72336

>  <CNNscore>  (59) 
0.2931444943

>  <CNNaffinity>  (59) 
3.9788870811

>  <CNN_VS>  (59) 
1.1663888693

>  <CNNaffinity_variance>  (59) 
0.0881279111

$$$$
60
     RDKit          3D

 43 45  0  0  0  0  0  0  0  0999 V2000
   19.9636   76.5534   -7.5311 P   0  0  2  0  0  0  0  0  0  0  0  0
   19.2484   77.5154   -6.4446 O   0  0  0  0  0  0  0  0  0  0  0  0
   21.1280   77.1669   -8.2516 O   0  0  0  0  0  0  0  0  0  0  0  0
   18.7436   76.0508   -8.4675 O   0  0  0  0  0  0  0  0  0  0  0  0
   17.9068   75.0126   -7.9883 C   0  0  0  0  0  0  0  0  0  0  0  0
   18.5186   72.6992   -8.2059 O   0  0  0  0  0  0  0  0  0  0  0  0
   16.8544   72.6873  -10.7001 O   0  0  0  0  0  0  0  0  0  0  0  0
   15.2000   71.5157   -8.8761 O   0  0  0  0  0  0  0  0  0  0  0  0
   16.6372   73.3834   -9.4740 C   0  0  1  0  0  0  0  0  0  0  0  0
   16.1728   72.4229   -8.3991 C   0  0  2  0  0  0  0  0  0  0  0  0
   17.9934   73.8270   -8.9397 C   0  0  1  0  0  0  0  0  0  0  0  0
   17.4704   71.7364   -8.0079 C   0  0  2  0  0  0  0  0  0  0  0  0
   16.0023   72.3944  -11.0608 H   0  0  0  0  0  0  0  0  0  0  0  0
   14.3936   72.0004   -9.1118 H   0  0  0  0  0  0  0  0  0  0  0  0
   18.7966   69.4350   -7.0474 O   0  0  0  0  0  0  0  0  0  0  0  0
   17.4213   70.2246   -2.7201 O   0  0  0  0  0  0  0  0  0  0  0  0
   17.4758   71.3171   -6.6348 N   0  0  0  0  0  0  0  0  0  0  0  0
   18.1109   69.8301   -4.8935 N   0  0  0  0  0  0  0  0  0  0  0  0
   18.1718   70.1452   -6.2570 C   0  0  0  0  0  0  0  0  0  0  0  0
   16.7965   72.0648   -5.6791 C   0  0  0  0  0  0  0  0  0  0  0  0
   16.7470   71.7501   -4.3831 C   0  0  0  0  0  0  0  0  0  0  0  0
   17.4480   70.5408   -3.9055 C   0  0  0  0  0  0  0  0  0  0  0  0
   18.5882   69.0177   -4.6071 H   0  0  0  0  0  0  0  0  0  0  0  0
   20.3253   75.2357   -6.6675 O   0  0  0  0  0  0  0  0  0  0  0  0
   21.7450   74.5303   -6.3516 P   0  0  2  0  0  0  0  0  0  0  0  0
   22.7194   75.7826   -6.0354 O   0  0  0  0  0  0  0  0  0  0  0  0
   22.2371   73.6225   -7.4413 O   0  0  0  0  0  0  0  0  0  0  0  0
   21.5335   73.8079   -4.9239 O   0  0  0  0  0  0  0  0  0  0  0  0
   20.3070   71.9628   -4.0825 O   0  0  0  0  0  0  0  0  0  0  0  0
   19.2904   74.7815   -1.2414 O   0  0  0  0  0  0  0  0  0  0  0  0
   21.0946   72.6570   -0.5488 O   0  0  0  0  0  0  0  0  0  0  0  0
   19.5312   75.5544   -4.0206 O   0  0  0  0  0  0  0  0  0  0  0  0
   20.1495   74.1289   -2.1802 C   0  0  1  0  0  0  0  0  0  0  0  0
   20.3184   72.6723   -1.7437 C   0  0  1  0  0  0  0  0  0  0  0  0
   19.5193   74.2042   -3.5696 C   0  0  2  0  0  0  0  0  0  0  0  0
   21.0044   71.8423   -2.8371 C   0  0  1  0  0  0  0  0  0  0  0  0
   20.2479   73.3047   -4.5698 C   0  0  1  0  0  0  0  0  0  0  0  0
   19.6850   74.7377   -0.3571 H   0  0  0  0  0  0  0  0  0  0  0  0
   20.6507   73.1851    0.1333 H   0  0  0  0  0  0  0  0  0  0  0  0
   19.0668   76.1135   -3.3791 H   0  0  0  0  0  0  0  0  0  0  0  0
   21.9457   70.1684   -1.4155 O   0  0  0  0  0  0  0  0  0  0  0  0
   21.0413   70.3560   -2.4885 C   0  0  0  0  0  0  0  0  0  0  0  0
   21.9793   69.2270   -1.1826 H   0  0  0  0  0  0  0  0  0  0  0  0
 25 28  1  0
 25 24  1  0
 25 26  1  1
 25 27  2  0
  1  4  1  0
  1 24  1  0
  1  2  1  1
  1  3  2  0
  6 11  1  0
  6 12  1  0
 29 36  1  0
 29 37  1  0
  9  7  1  6
  7 13  1  0
 10  8  1  6
  8 14  1  0
 37 28  1  1
  4  5  1  0
 33 30  1  1
 30 38  1  0
 34 31  1  1
 31 39  1  0
 35 32  1  6
 32 40  1  0
 41 42  1  0
 41 43  1  0
 15 19  2  0
 16 22  2  0
 12 17  1  1
 17 19  1  0
 17 20  1  0
 18 19  1  0
 18 22  1  0
 18 23  1  0
  9 10  1  0
  9 11  1  0
 10 12  1  0
 11  5  1  1
 33 34  1  0
 33 35  1  0
 34 36  1  0
 35 37  1  0
 36 42  1  1
 20 21  2  0
 21 22  1  0
M  CHG  2   2  -1  26  -1
M  END
>  <COMPND>  (60) 
    8629 

>  <AUTHOR>  (60) 
    GENERATED BY OPEN BABEL 3.1.1

>  <MASTER>  (60) 
        0    0    0    0    0    0    0    0   58    0   58    0

>  <minimizedAffinity>  (60) 
-6.69938

>  <CNNscore>  (60) 
0.2866002619

>  <CNNaffinity>  (60) 
3.7571671009

>  <CNN_VS>  (60) 
1.0768051147

>  <CNNaffinity_variance>  (60) 
0.7234064937

$$$$
61
     RDKit          3D

 43 45  0  0  0  0  0  0  0  0999 V2000
   18.7995   73.8527   -7.8052 P   0  0  2  0  0  0  0  0  0  0  0  0
   17.3158   73.6104   -7.2075 O   0  0  0  0  0  0  0  0  0  0  0  0
   19.0867   75.2607   -8.2370 O   0  0  0  0  0  0  0  0  0  0  0  0
   18.9450   72.7221   -8.9535 O   0  0  0  0  0  0  0  0  0  0  0  0
   19.7134   71.5658   -8.6702 C   0  0  0  0  0  0  0  0  0  0  0  0
   18.8148   69.4174   -8.0779 O   0  0  0  0  0  0  0  0  0  0  0  0
   17.1737   69.6228  -10.5789 O   0  0  0  0  0  0  0  0  0  0  0  0
   15.3841   70.3013   -8.6363 O   0  0  0  0  0  0  0  0  0  0  0  0
   17.5590   70.6491   -9.6659 C   0  0  1  0  0  0  0  0  0  0  0  0
   16.7536   70.5452   -8.3876 C   0  0  2  0  0  0  0  0  0  0  0  0
   18.9692   70.3390   -9.1794 C   0  0  1  0  0  0  0  0  0  0  0  0
   17.4346   69.3865   -7.6793 C   0  0  2  0  0  0  0  0  0  0  0  0
   16.2762   69.7994  -10.9036 H   0  0  0  0  0  0  0  0  0  0  0  0
   14.9960   71.0668   -9.0880 H   0  0  0  0  0  0  0  0  0  0  0  0
   15.1541   68.7347   -6.1456 O   0  0  0  0  0  0  0  0  0  0  0  0
   17.2601   69.8551   -2.2022 O   0  0  0  0  0  0  0  0  0  0  0  0
   17.3595   69.4980   -6.2499 N   0  0  0  0  0  0  0  0  0  0  0  0
   16.2046   69.2929   -4.1833 N   0  0  0  0  0  0  0  0  0  0  0  0
   16.1670   69.1459   -5.5758 C   0  0  0  0  0  0  0  0  0  0  0  0
   18.4602   69.9518   -5.5314 C   0  0  0  0  0  0  0  0  0  0  0  0
   18.4795   70.0876   -4.2038 C   0  0  0  0  0  0  0  0  0  0  0  0
   17.2738   69.7411   -3.4239 C   0  0  0  0  0  0  0  0  0  0  0  0
   15.3850   69.0540   -3.6925 H   0  0  0  0  0  0  0  0  0  0  0  0
   19.7601   73.3009   -6.6281 O   0  0  0  0  0  0  0  0  0  0  0  0
   21.1976   73.8190   -6.1006 P   0  0  2  0  0  0  0  0  0  0  0  0
   20.9654   75.4062   -5.8897 O   0  0  0  0  0  0  0  0  0  0  0  0
   22.3453   73.4759   -7.0054 O   0  0  0  0  0  0  0  0  0  0  0  0
   21.3230   73.2233   -4.6058 O   0  0  0  0  0  0  0  0  0  0  0  0
   23.5535   73.8203   -4.0716 O   0  0  0  0  0  0  0  0  0  0  0  0
   22.3571   72.3780   -0.3920 O   0  0  0  0  0  0  0  0  0  0  0  0
   22.7153   75.2038   -0.7591 O   0  0  0  0  0  0  0  0  0  0  0  0
   21.4681   71.0675   -2.8151 O   0  0  0  0  0  0  0  0  0  0  0  0
   22.1923   73.0450   -1.6463 C   0  0  1  0  0  0  0  0  0  0  0  0
   23.1642   74.2257   -1.6930 C   0  0  1  0  0  0  0  0  0  0  0  0
   22.4866   72.0613   -2.7772 C   0  0  2  0  0  0  0  0  0  0  0  0
   23.2379   74.8272   -3.1029 C   0  0  1  0  0  0  0  0  0  0  0  0
   22.5873   72.7691   -4.1296 C   0  0  1  0  0  0  0  0  0  0  0  0
   22.1712   72.9971    0.3304 H   0  0  0  0  0  0  0  0  0  0  0  0
   22.6728   74.8111    0.1270 H   0  0  0  0  0  0  0  0  0  0  0  0
   21.4145   70.6265   -1.9534 H   0  0  0  0  0  0  0  0  0  0  0  0
   25.1116   75.6301   -4.3492 O   0  0  0  0  0  0  0  0  0  0  0  0
   24.3164   75.9030   -3.2101 C   0  0  0  0  0  0  0  0  0  0  0  0
   25.8022   76.3070   -4.4303 H   0  0  0  0  0  0  0  0  0  0  0  0
 25 28  1  0
 25 24  1  0
 25 26  1  1
 25 27  2  0
  1  4  1  0
  1 24  1  0
  1  2  1  1
  1  3  2  0
  6 11  1  0
  6 12  1  0
 29 36  1  0
 29 37  1  0
  9  7  1  6
  7 13  1  0
 10  8  1  6
  8 14  1  0
 37 28  1  1
  4  5  1  0
 33 30  1  1
 30 38  1  0
 34 31  1  1
 31 39  1  0
 35 32  1  6
 32 40  1  0
 41 42  1  0
 41 43  1  0
 15 19  2  0
 16 22  2  0
 12 17  1  1
 17 19  1  0
 17 20  1  0
 18 19  1  0
 18 22  1  0
 18 23  1  0
  9 10  1  0
  9 11  1  0
 10 12  1  0
 11  5  1  1
 33 34  1  0
 33 35  1  0
 34 36  1  0
 35 37  1  0
 36 42  1  1
 20 21  2  0
 21 22  1  0
M  CHG  2   2  -1  26  -1
M  END
>  <COMPND>  (61) 
    8629 

>  <AUTHOR>  (61) 
    GENERATED BY OPEN BABEL 3.1.1

>  <MASTER>  (61) 
        0    0    0    0    0    0    0    0   58    0   58    0

>  <minimizedAffinity>  (61) 
-8.08467

>  <CNNscore>  (61) 
0.7687731385

>  <CNNaffinity>  (61) 
4.6469564438

>  <CNN_VS>  (61) 
3.5724554062

>  <CNNaffinity_variance>  (61) 
0.4447247982

$$$$
62
     RDKit          3D

 43 45  0  0  0  0  0  0  0  0999 V2000
   19.7543   71.2046   -3.1760 P   0  0  2  0  0  0  0  0  0  0  0  0
   20.5162   70.0516   -2.3350 O   0  0  0  0  0  0  0  0  0  0  0  0
   19.0398   72.2287   -2.3439 O   0  0  0  0  0  0  0  0  0  0  0  0
   18.8327   70.3797   -4.2191 O   0  0  0  0  0  0  0  0  0  0  0  0
   17.7861   69.5739   -3.7060 C   0  0  0  0  0  0  0  0  0  0  0  0
   16.5502   71.1226   -5.0654 O   0  0  0  0  0  0  0  0  0  0  0  0
   14.0965   70.0788   -3.6941 O   0  0  0  0  0  0  0  0  0  0  0  0
   14.0405   68.7733   -6.0877 O   0  0  0  0  0  0  0  0  0  0  0  0
   15.2777   69.3806   -4.0847 C   0  0  1  0  0  0  0  0  0  0  0  0
   15.2974   69.1793   -5.5856 C   0  0  2  0  0  0  0  0  0  0  0  0
   16.4649   70.3118   -3.8730 C   0  0  1  0  0  0  0  0  0  0  0  0
   15.7090   70.5546   -6.0826 C   0  0  2  0  0  0  0  0  0  0  0  0
   13.3247   69.5039   -3.8200 H   0  0  0  0  0  0  0  0  0  0  0  0
   13.8235   67.8931   -5.7430 H   0  0  0  0  0  0  0  0  0  0  0  0
   15.2139   72.2094   -8.3174 O   0  0  0  0  0  0  0  0  0  0  0  0
   18.5879   70.2344  -10.7579 O   0  0  0  0  0  0  0  0  0  0  0  0
   16.4433   70.4946   -7.3149 N   0  0  0  0  0  0  0  0  0  0  0  0
   16.8944   71.2248   -9.5307 N   0  0  0  0  0  0  0  0  0  0  0  0
   16.1143   71.3696   -8.3764 C   0  0  0  0  0  0  0  0  0  0  0  0
   17.4769   69.5759   -7.4617 C   0  0  0  0  0  0  0  0  0  0  0  0
   18.2104   69.4496   -8.5695 C   0  0  0  0  0  0  0  0  0  0  0  0
   17.9313   70.3261   -9.7253 C   0  0  0  0  0  0  0  0  0  0  0  0
   16.6831   71.8236  -10.2834 H   0  0  0  0  0  0  0  0  0  0  0  0
   20.9247   71.8009   -4.1181 O   0  0  0  0  0  0  0  0  0  0  0  0
   21.6168   73.2613   -4.1553 P   0  0  2  0  0  0  0  0  0  0  0  0
   20.5398   74.1619   -4.9592 O   0  0  0  0  0  0  0  0  0  0  0  0
   22.9973   73.2731   -4.7452 O   0  0  0  0  0  0  0  0  0  0  0  0
   21.5355   73.7908   -2.6328 O   0  0  0  0  0  0  0  0  0  0  0  0
   23.2920   75.0424   -1.6506 O   0  0  0  0  0  0  0  0  0  0  0  0
   21.5776   73.5083    1.7784 O   0  0  0  0  0  0  0  0  0  0  0  0
   21.2485   76.2916    1.1516 O   0  0  0  0  0  0  0  0  0  0  0  0
   21.7642   71.8693   -0.6003 O   0  0  0  0  0  0  0  0  0  0  0  0
   21.5856   74.0309    0.4471 C   0  0  1  0  0  0  0  0  0  0  0  0
   22.1793   75.4403    0.4887 C   0  0  1  0  0  0  0  0  0  0  0  0
   22.4283   73.1185   -0.4422 C   0  0  2  0  0  0  0  0  0  0  0  0
   22.4674   75.9620   -0.9255 C   0  0  1  0  0  0  0  0  0  0  0  0
   22.6972   73.7527   -1.8080 C   0  0  1  0  0  0  0  0  0  0  0  0
   21.0438   74.0828    2.3481 H   0  0  0  0  0  0  0  0  0  0  0  0
   21.0749   75.9508    2.0431 H   0  0  0  0  0  0  0  0  0  0  0  0
   21.5999   71.4780    0.2713 H   0  0  0  0  0  0  0  0  0  0  0  0
   22.2487   78.3368   -0.7797 O   0  0  0  0  0  0  0  0  0  0  0  0
   23.2042   77.2994   -0.9026 C   0  0  0  0  0  0  0  0  0  0  0  0
   22.7033   79.1941   -0.7635 H   0  0  0  0  0  0  0  0  0  0  0  0
 25 28  1  0
 25 24  1  0
 25 26  1  6
 25 27  2  0
  1  4  1  0
  1 24  1  0
  1  2  1  1
  1  3  2  0
  6 11  1  0
  6 12  1  0
 29 36  1  0
 29 37  1  0
  9  7  1  6
  7 13  1  0
 10  8  1  6
  8 14  1  0
 37 28  1  1
  4  5  1  0
 33 30  1  1
 30 38  1  0
 34 31  1  6
 31 39  1  0
 35 32  1  6
 32 40  1  0
 41 42  1  0
 41 43  1  0
 15 19  2  0
 16 22  2  0
 12 17  1  6
 17 19  1  0
 17 20  1  0
 18 19  1  0
 18 22  1  0
 18 23  1  0
  9 10  1  0
  9 11  1  0
 10 12  1  0
 11  5  1  6
 33 34  1  0
 33 35  1  0
 34 36  1  0
 35 37  1  0
 36 42  1  1
 20 21  2  0
 21 22  1  0
M  CHG  2   2  -1  26  -1
M  END
>  <COMPND>  (62) 
    8629 

>  <AUTHOR>  (62) 
    GENERATED BY OPEN BABEL 3.1.1

>  <MASTER>  (62) 
        0    0    0    0    0    0    0    0   58    0   58    0

>  <minimizedAffinity>  (62) 
-7.01449

>  <CNNscore>  (62) 
0.7212346792

>  <CNNaffinity>  (62) 
4.4362902641

>  <CNN_VS>  (62) 
3.1996064186

>  <CNNaffinity_variance>  (62) 
0.1702372134

$$$$
63
     RDKit          3D

 43 45  0  0  0  0  0  0  0  0999 V2000
   19.7775   70.6589   -3.0699 P   0  0  2  0  0  0  0  0  0  0  0  0
   19.8553   71.5690   -4.4053 O   0  0  0  0  0  0  0  0  0  0  0  0
   20.3263   69.2701   -3.2166 O   0  0  0  0  0  0  0  0  0  0  0  0
   18.2258   70.7577   -2.6225 O   0  0  0  0  0  0  0  0  0  0  0  0
   17.2943   69.8668   -3.2112 C   0  0  0  0  0  0  0  0  0  0  0  0
   16.1757   71.3340   -4.7506 O   0  0  0  0  0  0  0  0  0  0  0  0
   13.6249   70.4599   -3.4390 O   0  0  0  0  0  0  0  0  0  0  0  0
   13.6576   68.9734   -5.7250 O   0  0  0  0  0  0  0  0  0  0  0  0
   14.8047   69.7051   -3.7100 C   0  0  1  0  0  0  0  0  0  0  0  0
   14.8975   69.3868   -5.1877 C   0  0  2  0  0  0  0  0  0  0  0  0
   16.0050   70.6211   -3.5060 C   0  0  1  0  0  0  0  0  0  0  0  0
   15.3733   70.7089   -5.7655 C   0  0  2  0  0  0  0  0  0  0  0  0
   12.8448   69.8957   -3.5623 H   0  0  0  0  0  0  0  0  0  0  0  0
   13.3980   68.1281   -5.3262 H   0  0  0  0  0  0  0  0  0  0  0  0
   14.3241   70.5096   -8.3804 O   0  0  0  0  0  0  0  0  0  0  0  0
   18.5213   70.0422  -10.2259 O   0  0  0  0  0  0  0  0  0  0  0  0
   16.1691   70.5351   -6.9478 N   0  0  0  0  0  0  0  0  0  0  0  0
   16.4148   70.2772   -9.2972 N   0  0  0  0  0  0  0  0  0  0  0  0
   15.5437   70.4454   -8.2133 C   0  0  0  0  0  0  0  0  0  0  0  0
   17.5537   70.4557   -6.8457 C   0  0  0  0  0  0  0  0  0  0  0  0
   18.3702   70.2939   -7.8889 C   0  0  0  0  0  0  0  0  0  0  0  0
   17.7971   70.1914   -9.2465 C   0  0  0  0  0  0  0  0  0  0  0  0
   16.0016   70.2119  -10.1887 H   0  0  0  0  0  0  0  0  0  0  0  0
   20.5324   71.5675   -1.9664 O   0  0  0  0  0  0  0  0  0  0  0  0
   22.0480   72.1265   -1.9084 P   0  0  2  0  0  0  0  0  0  0  0  0
   22.8866   71.0107   -2.7265 O   0  0  0  0  0  0  0  0  0  0  0  0
   22.5550   72.3871   -0.5196 O   0  0  0  0  0  0  0  0  0  0  0  0
   22.0432   73.4208   -2.8726 O   0  0  0  0  0  0  0  0  0  0  0  0
   22.6752   73.2816   -5.1525 O   0  0  0  0  0  0  0  0  0  0  0  0
   23.4429   77.2858   -4.4982 O   0  0  0  0  0  0  0  0  0  0  0  0
   21.1753   76.5175   -6.0844 O   0  0  0  0  0  0  0  0  0  0  0  0
   24.0378   75.3455   -2.4341 O   0  0  0  0  0  0  0  0  0  0  0  0
   22.7404   76.0505   -4.3370 C   0  0  1  0  0  0  0  0  0  0  0  0
   22.2126   75.6168   -5.7060 C   0  0  1  0  0  0  0  0  0  0  0  0
   23.6975   75.0020   -3.7730 C   0  0  2  0  0  0  0  0  0  0  0  0
   21.6817   74.1775   -5.6645 C   0  0  1  0  0  0  0  0  0  0  0  0
   23.0907   73.5987   -3.8225 C   0  0  1  0  0  0  0  0  0  0  0  0
   22.8407   77.9560   -4.8556 H   0  0  0  0  0  0  0  0  0  0  0  0
   21.5235   77.4227   -6.1063 H   0  0  0  0  0  0  0  0  0  0  0  0
   24.4211   76.2358   -2.4163 H   0  0  0  0  0  0  0  0  0  0  0  0
   22.4800   73.3437   -7.7565 O   0  0  0  0  0  0  0  0  0  0  0  0
   21.2960   73.6699   -7.0522 C   0  0  0  0  0  0  0  0  0  0  0  0
   22.2499   73.0189   -8.6415 H   0  0  0  0  0  0  0  0  0  0  0  0
 25 28  1  0
 25 24  1  0
 25 26  1  6
 25 27  2  0
  1  4  1  0
  1 24  1  0
  1  2  1  6
  1  3  2  0
  6 11  1  0
  6 12  1  0
 29 36  1  0
 29 37  1  0
  9  7  1  6
  7 13  1  0
 10  8  1  6
  8 14  1  0
 37 28  1  1
  4  5  1  0
 33 30  1  6
 30 38  1  0
 34 31  1  1
 31 39  1  0
 35 32  1  1
 32 40  1  0
 41 42  1  0
 41 43  1  0
 15 19  2  0
 16 22  2  0
 12 17  1  6
 17 19  1  0
 17 20  1  0
 18 19  1  0
 18 22  1  0
 18 23  1  0
  9 10  1  0
  9 11  1  0
 10 12  1  0
 11  5  1  6
 33 34  1  0
 33 35  1  0
 34 36  1  0
 35 37  1  0
 36 42  1  6
 20 21  2  0
 21 22  1  0
M  CHG  2   2  -1  26  -1
M  END
>  <COMPND>  (63) 
    8629 

>  <AUTHOR>  (63) 
    GENERATED BY OPEN BABEL 3.1.1

>  <MASTER>  (63) 
        0    0    0    0    0    0    0    0   58    0   58    0

>  <minimizedAffinity>  (63) 
-7.85182

>  <CNNscore>  (63) 
0.7008976936

>  <CNNaffinity>  (63) 
4.5177073479

>  <CNN_VS>  (63) 
3.1664507389

>  <CNNaffinity_variance>  (63) 
0.2281912118

$$$$
64
     RDKit          3D

 43 45  0  0  0  0  0  0  0  0999 V2000
   18.7666   73.7592   -7.2165 P   0  0  2  0  0  0  0  0  0  0  0  0
   17.5542   74.6755   -7.7714 O   0  0  0  0  0  0  0  0  0  0  0  0
   20.1028   74.4398   -7.1645 O   0  0  0  0  0  0  0  0  0  0  0  0
   18.6930   72.4242   -8.1277 O   0  0  0  0  0  0  0  0  0  0  0  0
   19.0753   71.1887   -7.5489 C   0  0  0  0  0  0  0  0  0  0  0  0
   17.6751   69.2633   -7.2230 O   0  0  0  0  0  0  0  0  0  0  0  0
   16.9407   69.5402  -10.1169 O   0  0  0  0  0  0  0  0  0  0  0  0
   14.7916   70.6417   -8.8503 O   0  0  0  0  0  0  0  0  0  0  0  0
   17.2027   70.5572   -9.1513 C   0  0  1  0  0  0  0  0  0  0  0  0
   16.0398   70.6807   -8.1890 C   0  0  2  0  0  0  0  0  0  0  0  0
   18.3187   70.0624   -8.2397 C   0  0  1  0  0  0  0  0  0  0  0  0
   16.2563   69.4845   -7.2779 C   0  0  2  0  0  0  0  0  0  0  0  0
   16.2314   69.8335  -10.7109 H   0  0  0  0  0  0  0  0  0  0  0  0
   14.7014   71.4233   -9.4174 H   0  0  0  0  0  0  0  0  0  0  0  0
   13.6160   68.9461   -6.4313 O   0  0  0  0  0  0  0  0  0  0  0  0
   14.4960   70.4065   -2.1495 O   0  0  0  0  0  0  0  0  0  0  0  0
   15.7684   69.7141   -5.9472 N   0  0  0  0  0  0  0  0  0  0  0  0
   14.0564   69.6735   -4.2999 N   0  0  0  0  0  0  0  0  0  0  0  0
   14.4250   69.4107   -5.6255 C   0  0  0  0  0  0  0  0  0  0  0  0
   16.6187   70.2343   -4.9775 C   0  0  0  0  0  0  0  0  0  0  0  0
   16.2513   70.4803   -3.7182 C   0  0  0  0  0  0  0  0  0  0  0  0
   14.8644   70.1912   -3.3000 C   0  0  0  0  0  0  0  0  0  0  0  0
   13.1250   69.4703   -4.0529 H   0  0  0  0  0  0  0  0  0  0  0  0
   18.2135   73.2527   -5.7846 O   0  0  0  0  0  0  0  0  0  0  0  0
   18.3692   73.8816   -4.3036 P   0  0  2  0  0  0  0  0  0  0  0  0
   16.8422   73.9739   -3.7772 O   0  0  0  0  0  0  0  0  0  0  0  0
   19.1180   75.1822   -4.2630 O   0  0  0  0  0  0  0  0  0  0  0  0
   19.0322   72.7004   -3.4259 O   0  0  0  0  0  0  0  0  0  0  0  0
   21.1521   72.6060   -4.4814 O   0  0  0  0  0  0  0  0  0  0  0  0
   21.9345   70.2058   -1.2137 O   0  0  0  0  0  0  0  0  0  0  0  0
   23.0686   72.8412   -1.3413 O   0  0  0  0  0  0  0  0  0  0  0  0
   19.3589   70.0621   -2.5272 O   0  0  0  0  0  0  0  0  0  0  0  0
   21.3329   71.2983   -1.9137 C   0  0  1  0  0  0  0  0  0  0  0  0
   22.4490   72.1966   -2.4507 C   0  0  1  0  0  0  0  0  0  0  0  0
   20.4853   70.7504   -3.0603 C   0  0  2  0  0  0  0  0  0  0  0  0
   21.8974   73.2377   -3.4339 C   0  0  1  0  0  0  0  0  0  0  0  0
   20.0282   71.8623   -4.0063 C   0  0  1  0  0  0  0  0  0  0  0  0
   22.4738   70.5469   -0.4841 H   0  0  0  0  0  0  0  0  0  0  0  0
   23.4122   72.1728   -0.7279 H   0  0  0  0  0  0  0  0  0  0  0  0
   19.6615   69.3607   -1.9303 H   0  0  0  0  0  0  0  0  0  0  0  0
   22.5559   74.4738   -5.3697 O   0  0  0  0  0  0  0  0  0  0  0  0
   23.0117   74.0409   -4.1012 C   0  0  0  0  0  0  0  0  0  0  0  0
   23.2547   74.9867   -5.8060 H   0  0  0  0  0  0  0  0  0  0  0  0
 25 28  1  0
 25 24  1  0
 25 26  1  1
 25 27  2  0
  1  4  1  0
  1 24  1  0
  1  2  1  6
  1  3  2  0
  6 11  1  0
  6 12  1  0
 29 36  1  0
 29 37  1  0
  9  7  1  6
  7 13  1  0
 10  8  1  6
  8 14  1  0
 37 28  1  1
  4  5  1  0
 33 30  1  6
 30 38  1  0
 34 31  1  1
 31 39  1  0
 35 32  1  1
 32 40  1  0
 41 42  1  0
 41 43  1  0
 15 19  2  0
 16 22  2  0
 12 17  1  1
 17 19  1  0
 17 20  1  0
 18 19  1  0
 18 22  1  0
 18 23  1  0
  9 10  1  0
  9 11  1  0
 10 12  1  0
 11  5  1  1
 33 34  1  0
 33 35  1  0
 34 36  1  0
 35 37  1  0
 36 42  1  6
 20 21  2  0
 21 22  1  0
M  CHG  2   2  -1  26  -1
M  END
>  <COMPND>  (64) 
    8629 

>  <AUTHOR>  (64) 
    GENERATED BY OPEN BABEL 3.1.1

>  <MASTER>  (64) 
        0    0    0    0    0    0    0    0   58    0   58    0

>  <minimizedAffinity>  (64) 
-7.55438

>  <CNNscore>  (64) 
0.6441028714

>  <CNNaffinity>  (64) 
4.4658889771

>  <CNN_VS>  (64) 
2.8764920235

>  <CNNaffinity_variance>  (64) 
0.4645663202

$$$$
65
     RDKit          3D

 43 45  0  0  0  0  0  0  0  0999 V2000
   19.1976   73.5918   -7.7189 P   0  0  2  0  0  0  0  0  0  0  0  0
   18.0275   73.0968   -6.7172 O   0  0  0  0  0  0  0  0  0  0  0  0
   19.1086   75.0305   -8.1355 O   0  0  0  0  0  0  0  0  0  0  0  0
   19.1639   72.5090   -8.9207 O   0  0  0  0  0  0  0  0  0  0  0  0
   19.8844   71.2993   -8.7612 C   0  0  0  0  0  0  0  0  0  0  0  0
   18.8115   69.2331   -8.1667 O   0  0  0  0  0  0  0  0  0  0  0  0
   17.1638   69.5921  -10.6460 O   0  0  0  0  0  0  0  0  0  0  0  0
   15.4631   70.4117   -8.6783 O   0  0  0  0  0  0  0  0  0  0  0  0
   17.6472   70.5766   -9.7336 C   0  0  1  0  0  0  0  0  0  0  0  0
   16.8514   70.5357   -8.4458 C   0  0  2  0  0  0  0  0  0  0  0  0
   19.0312   70.1438   -9.2661 C   0  0  1  0  0  0  0  0  0  0  0  0
   17.4387   69.3190   -7.7509 C   0  0  2  0  0  0  0  0  0  0  0  0
   16.2811   69.8469  -10.9586 H   0  0  0  0  0  0  0  0  0  0  0  0
   15.1368   71.2102   -9.1218 H   0  0  0  0  0  0  0  0  0  0  0  0
   15.1352   68.8355   -6.1895 O   0  0  0  0  0  0  0  0  0  0  0  0
   17.3714   69.7733   -2.2702 O   0  0  0  0  0  0  0  0  0  0  0  0
   17.3908   69.4290   -6.3202 N   0  0  0  0  0  0  0  0  0  0  0  0
   16.2506   69.3026   -4.2392 N   0  0  0  0  0  0  0  0  0  0  0  0
   16.1837   69.1656   -5.6316 C   0  0  0  0  0  0  0  0  0  0  0  0
   18.5321   69.7943   -5.6147 C   0  0  0  0  0  0  0  0  0  0  0  0
   18.5790   69.9218   -4.2870 C   0  0  0  0  0  0  0  0  0  0  0  0
   17.3605   69.6644   -3.4924 C   0  0  0  0  0  0  0  0  0  0  0  0
   15.4215   69.1245   -3.7386 H   0  0  0  0  0  0  0  0  0  0  0  0
   20.5482   73.2052   -6.9193 O   0  0  0  0  0  0  0  0  0  0  0  0
   21.4520   74.0597   -5.8869 P   0  0  2  0  0  0  0  0  0  0  0  0
   21.5543   75.5103   -6.5960 O   0  0  0  0  0  0  0  0  0  0  0  0
   22.7777   73.4328   -5.5652 O   0  0  0  0  0  0  0  0  0  0  0  0
   20.4967   74.2977   -4.6079 O   0  0  0  0  0  0  0  0  0  0  0  0
   20.9710   72.6357   -2.9864 O   0  0  0  0  0  0  0  0  0  0  0  0
   17.7675   74.4687   -1.1349 O   0  0  0  0  0  0  0  0  0  0  0  0
   20.4173   74.8585   -0.0983 O   0  0  0  0  0  0  0  0  0  0  0  0
   17.7622   74.1078   -4.0070 O   0  0  0  0  0  0  0  0  0  0  0  0
   18.9517   74.4111   -1.9347 C   0  0  1  0  0  0  0  0  0  0  0  0
   20.0896   73.8676   -1.0684 C   0  0  1  0  0  0  0  0  0  0  0  0
   18.7019   73.4946   -3.1310 C   0  0  2  0  0  0  0  0  0  0  0  0
   21.3197   73.5261   -1.9200 C   0  0  1  0  0  0  0  0  0  0  0  0
   19.9974   73.1784   -3.8805 C   0  0  1  0  0  0  0  0  0  0  0  0
   17.9192   75.0494   -0.3738 H   0  0  0  0  0  0  0  0  0  0  0  0
   19.6319   75.0654    0.4324 H   0  0  0  0  0  0  0  0  0  0  0  0
   16.9464   74.3026   -3.5208 H   0  0  0  0  0  0  0  0  0  0  0  0
   21.9859   71.5165   -0.8124 O   0  0  0  0  0  0  0  0  0  0  0  0
   22.4087   72.8364   -1.1011 C   0  0  0  0  0  0  0  0  0  0  0  0
   22.6693   71.0653   -0.2918 H   0  0  0  0  0  0  0  0  0  0  0  0
 25 28  1  0
 25 24  1  0
 25 26  1  6
 25 27  2  0
  1  4  1  0
  1 24  1  0
  1  2  1  1
  1  3  2  0
  6 11  1  0
  6 12  1  0
 29 36  1  0
 29 37  1  0
  9  7  1  6
  7 13  1  0
 10  8  1  6
  8 14  1  0
 37 28  1  1
  4  5  1  0
 33 30  1  1
 30 38  1  0
 34 31  1  1
 31 39  1  0
 35 32  1  6
 32 40  1  0
 41 42  1  0
 41 43  1  0
 15 19  2  0
 16 22  2  0
 12 17  1  1
 17 19  1  0
 17 20  1  0
 18 19  1  0
 18 22  1  0
 18 23  1  0
  9 10  1  0
  9 11  1  0
 10 12  1  0
 11  5  1  1
 33 34  1  0
 33 35  1  0
 34 36  1  0
 35 37  1  0
 36 42  1  1
 20 21  2  0
 21 22  1  0
M  CHG  2   2  -1  26  -1
M  END
>  <COMPND>  (65) 
    8629 

>  <AUTHOR>  (65) 
    GENERATED BY OPEN BABEL 3.1.1

>  <MASTER>  (65) 
        0    0    0    0    0    0    0    0   58    0   58    0

>  <minimizedAffinity>  (65) 
-7.76665

>  <CNNscore>  (65) 
0.5921849608

>  <CNNaffinity>  (65) 
4.3172402382

>  <CNN_VS>  (65) 
2.5566046238

>  <CNNaffinity_variance>  (65) 
0.5911207199

$$$$
66
     RDKit          3D

 43 45  0  0  0  0  0  0  0  0999 V2000
   18.7359   74.0970   -7.7462 P   0  0  2  0  0  0  0  0  0  0  0  0
   17.2180   74.0103   -7.1932 O   0  0  0  0  0  0  0  0  0  0  0  0
   19.0957   75.3939   -8.4096 O   0  0  0  0  0  0  0  0  0  0  0  0
   18.8920   72.7723   -8.6620 O   0  0  0  0  0  0  0  0  0  0  0  0
   19.4103   71.5957   -8.0663 C   0  0  0  0  0  0  0  0  0  0  0  0
   18.2296   69.5793   -7.5058 O   0  0  0  0  0  0  0  0  0  0  0  0
   17.0964   69.6941  -10.2795 O   0  0  0  0  0  0  0  0  0  0  0  0
   15.0514   70.6683   -8.7612 O   0  0  0  0  0  0  0  0  0  0  0  0
   17.3997   70.7624   -9.3839 C   0  0  1  0  0  0  0  0  0  0  0  0
   16.3690   70.8287   -8.2764 C   0  0  2  0  0  0  0  0  0  0  0  0
   18.6641   70.3896   -8.6199 C   0  0  1  0  0  0  0  0  0  0  0  0
   16.8028   69.6865   -7.3734 C   0  0  2  0  0  0  0  0  0  0  0  0
   16.2927   69.9095  -10.7791 H   0  0  0  0  0  0  0  0  0  0  0  0
   14.8223   71.4196   -9.3301 H   0  0  0  0  0  0  0  0  0  0  0  0
   16.2507   67.6552   -5.4900 O   0  0  0  0  0  0  0  0  0  0  0  0
   15.5711   70.7174   -2.1133 O   0  0  0  0  0  0  0  0  0  0  0  0
   16.4790   69.9246   -5.9951 N   0  0  0  0  0  0  0  0  0  0  0  0
   15.9129   69.1816   -3.8102 N   0  0  0  0  0  0  0  0  0  0  0  0
   16.2177   68.8345   -5.1325 C   0  0  0  0  0  0  0  0  0  0  0  0
   16.4234   71.2272   -5.5113 C   0  0  0  0  0  0  0  0  0  0  0  0
   16.1301   71.5413   -4.2478 C   0  0  0  0  0  0  0  0  0  0  0  0
   15.8441   70.4610   -3.2819 C   0  0  0  0  0  0  0  0  0  0  0  0
   15.7269   68.4386   -3.1912 H   0  0  0  0  0  0  0  0  0  0  0  0
   19.6195   73.7418   -6.4399 O   0  0  0  0  0  0  0  0  0  0  0  0
   21.1615   74.0674   -6.0808 P   0  0  2  0  0  0  0  0  0  0  0  0
   21.1776   75.6791   -5.9410 O   0  0  0  0  0  0  0  0  0  0  0  0
   22.1518   73.5215   -7.0683 O   0  0  0  0  0  0  0  0  0  0  0  0
   21.3529   73.5255   -4.5726 O   0  0  0  0  0  0  0  0  0  0  0  0
   19.6026   72.0933   -3.8639 O   0  0  0  0  0  0  0  0  0  0  0  0
   21.4440   72.7357   -0.2242 O   0  0  0  0  0  0  0  0  0  0  0  0
   21.7030   70.1824   -1.5133 O   0  0  0  0  0  0  0  0  0  0  0  0
   21.2189   74.9022   -2.1309 O   0  0  0  0  0  0  0  0  0  0  0  0
   21.3877   72.5499   -1.6412 C   0  0  1  0  0  0  0  0  0  0  0  0
   20.7694   71.1787   -1.9209 C   0  0  1  0  0  0  0  0  0  0  0  0
   20.5367   73.6591   -2.2566 C   0  0  2  0  0  0  0  0  0  0  0  0
   20.4308   71.0168   -3.4089 C   0  0  1  0  0  0  0  0  0  0  0  0
   20.2165   73.3763   -3.7255 C   0  0  1  0  0  0  0  0  0  0  0  0
   21.9833   72.0350    0.1727 H   0  0  0  0  0  0  0  0  0  0  0  0
   21.9088   70.2961   -0.5720 H   0  0  0  0  0  0  0  0  0  0  0  0
   21.4156   75.0698   -1.1965 H   0  0  0  0  0  0  0  0  0  0  0  0
   18.8867   69.4097   -2.5476 O   0  0  0  0  0  0  0  0  0  0  0  0
   19.6703   69.7216   -3.6847 C   0  0  0  0  0  0  0  0  0  0  0  0
   18.3967   68.5877   -2.7089 H   0  0  0  0  0  0  0  0  0  0  0  0
 25 28  1  0
 25 24  1  0
 25 26  1  1
 25 27  2  0
  1  4  1  0
  1 24  1  0
  1  2  1  1
  1  3  2  0
  6 11  1  0
  6 12  1  0
 29 36  1  0
 29 37  1  0
  9  7  1  6
  7 13  1  0
 10  8  1  6
  8 14  1  0
 37 28  1  6
  4  5  1  0
 33 30  1  1
 30 38  1  0
 34 31  1  6
 31 39  1  0
 35 32  1  6
 32 40  1  0
 41 42  1  0
 41 43  1  0
 15 19  2  0
 16 22  2  0
 12 17  1  1
 17 19  1  0
 17 20  1  0
 18 19  1  0
 18 22  1  0
 18 23  1  0
  9 10  1  0
  9 11  1  0
 10 12  1  0
 11  5  1  1
 33 34  1  0
 33 35  1  0
 34 36  1  0
 35 37  1  0
 36 42  1  1
 20 21  2  0
 21 22  1  0
M  CHG  2   2  -1  26  -1
M  END
>  <COMPND>  (66) 
    8629 

>  <AUTHOR>  (66) 
    GENERATED BY OPEN BABEL 3.1.1

>  <MASTER>  (66) 
        0    0    0    0    0    0    0    0   58    0   58    0

>  <minimizedAffinity>  (66) 
-8.00897

>  <CNNscore>  (66) 
0.5631460547

>  <CNNaffinity>  (66) 
4.2664184570

>  <CNN_VS>  (66) 
2.4026167393

>  <CNNaffinity_variance>  (66) 
0.8563135266

$$$$
67
     RDKit          3D

 43 45  0  0  0  0  0  0  0  0999 V2000
   19.1872   73.6306   -7.8739 P   0  0  2  0  0  0  0  0  0  0  0  0
   18.4389   74.8897   -8.5609 O   0  0  0  0  0  0  0  0  0  0  0  0
   20.5362   73.9354   -7.2921 O   0  0  0  0  0  0  0  0  0  0  0  0
   19.1579   72.4888   -9.0199 O   0  0  0  0  0  0  0  0  0  0  0  0
   19.8508   71.2756   -8.7835 C   0  0  0  0  0  0  0  0  0  0  0  0
   18.7897   69.2120   -8.1596 O   0  0  0  0  0  0  0  0  0  0  0  0
   17.1155   69.5446  -10.6247 O   0  0  0  0  0  0  0  0  0  0  0  0
   15.4330   70.3772   -8.6468 O   0  0  0  0  0  0  0  0  0  0  0  0
   17.6056   70.5384   -9.7262 C   0  0  1  0  0  0  0  0  0  0  0  0
   16.8233   70.5069   -8.4298 C   0  0  2  0  0  0  0  0  0  0  0  0
   18.9956   70.1134   -9.2692 C   0  0  1  0  0  0  0  0  0  0  0  0
   17.4211   69.2979   -7.7304 C   0  0  2  0  0  0  0  0  0  0  0  0
   16.2289   69.7943  -10.9304 H   0  0  0  0  0  0  0  0  0  0  0  0
   15.1000   71.1709   -9.0940 H   0  0  0  0  0  0  0  0  0  0  0  0
   15.1098   68.9245   -6.1503 O   0  0  0  0  0  0  0  0  0  0  0  0
   17.4107   69.7954   -2.2530 O   0  0  0  0  0  0  0  0  0  0  0  0
   17.3877   69.4205   -6.3002 N   0  0  0  0  0  0  0  0  0  0  0  0
   16.2574   69.3583   -4.2110 N   0  0  0  0  0  0  0  0  0  0  0  0
   16.1753   69.2139   -5.6018 C   0  0  0  0  0  0  0  0  0  0  0  0
   18.5483   69.7421   -5.6050 C   0  0  0  0  0  0  0  0  0  0  0  0
   18.6096   69.8774   -4.2787 C   0  0  0  0  0  0  0  0  0  0  0  0
   17.3868   69.6780   -3.4742 C   0  0  0  0  0  0  0  0  0  0  0  0
   15.4249   69.2193   -3.7035 H   0  0  0  0  0  0  0  0  0  0  0  0
   18.0976   73.0997   -6.8042 O   0  0  0  0  0  0  0  0  0  0  0  0
   17.3782   73.8446   -5.5631 P   0  0  2  0  0  0  0  0  0  0  0  0
   16.5932   72.6442   -4.8144 O   0  0  0  0  0  0  0  0  0  0  0  0
   16.5071   75.0009   -5.9606 O   0  0  0  0  0  0  0  0  0  0  0  0
   18.5848   74.2291   -4.5624 O   0  0  0  0  0  0  0  0  0  0  0  0
   20.6559   73.1434   -4.1779 O   0  0  0  0  0  0  0  0  0  0  0  0
   19.8493   74.4074   -0.3305 O   0  0  0  0  0  0  0  0  0  0  0  0
   21.9161   75.7045   -1.8452 O   0  0  0  0  0  0  0  0  0  0  0  0
   17.6998   73.4493   -2.0161 O   0  0  0  0  0  0  0  0  0  0  0  0
   19.8529   74.4977   -1.7578 C   0  0  1  0  0  0  0  0  0  0  0  0
   21.3060   74.4775   -2.2360 C   0  0  1  0  0  0  0  0  0  0  0  0
   19.0805   73.3128   -2.3348 C   0  0  2  0  0  0  0  0  0  0  0  0
   21.3858   74.3023   -3.7585 C   0  0  1  0  0  0  0  0  0  0  0  0
   19.2665   73.2008   -3.8491 C   0  0  1  0  0  0  0  0  0  0  0  0
   20.3377   75.1572    0.0422 H   0  0  0  0  0  0  0  0  0  0  0  0
   21.8585   75.8031   -0.8818 H   0  0  0  0  0  0  0  0  0  0  0  0
   17.5954   73.5190   -1.0548 H   0  0  0  0  0  0  0  0  0  0  0  0
   22.8011   73.4453   -5.4824 O   0  0  0  0  0  0  0  0  0  0  0  0
   22.8242   74.1216   -4.2388 C   0  0  0  0  0  0  0  0  0  0  0  0
   23.7097   73.3235   -5.8004 H   0  0  0  0  0  0  0  0  0  0  0  0
 25 28  1  0
 25 24  1  0
 25 26  1  1
 25 27  2  0
  1  4  1  0
  1 24  1  0
  1  2  1  6
  1  3  2  0
  6 11  1  0
  6 12  1  0
 29 36  1  0
 29 37  1  0
  9  7  1  6
  7 13  1  0
 10  8  1  6
  8 14  1  0
 37 28  1  6
  4  5  1  0
 33 30  1  1
 30 38  1  0
 34 31  1  6
 31 39  1  0
 35 32  1  6
 32 40  1  0
 41 42  1  0
 41 43  1  0
 15 19  2  0
 16 22  2  0
 12 17  1  1
 17 19  1  0
 17 20  1  0
 18 19  1  0
 18 22  1  0
 18 23  1  0
  9 10  1  0
  9 11  1  0
 10 12  1  0
 11  5  1  1
 33 34  1  0
 33 35  1  0
 34 36  1  0
 35 37  1  0
 36 42  1  1
 20 21  2  0
 21 22  1  0
M  CHG  2   2  -1  26  -1
M  END
>  <COMPND>  (67) 
    8629 

>  <AUTHOR>  (67) 
    GENERATED BY OPEN BABEL 3.1.1

>  <MASTER>  (67) 
        0    0    0    0    0    0    0    0   58    0   58    0

>  <minimizedAffinity>  (67) 
-7.20528

>  <CNNscore>  (67) 
0.5522152185

>  <CNNaffinity>  (67) 
4.1242218018

>  <CNN_VS>  (67) 
2.2774579525

>  <CNNaffinity_variance>  (67) 
0.6691751480

$$$$
68
     RDKit          3D

 43 45  0  0  0  0  0  0  0  0999 V2000
   19.7296   73.5029   -3.3322 P   0  0  2  0  0  0  0  0  0  0  0  0
   18.4810   74.2339   -2.6083 O   0  0  0  0  0  0  0  0  0  0  0  0
   20.6861   74.4248   -4.0297 O   0  0  0  0  0  0  0  0  0  0  0  0
   19.0340   72.3769   -4.2629 O   0  0  0  0  0  0  0  0  0  0  0  0
   18.5739   71.1842   -3.6515 C   0  0  0  0  0  0  0  0  0  0  0  0
   16.6093   71.5602   -4.9829 O   0  0  0  0  0  0  0  0  0  0  0  0
   15.1290   69.9806   -2.9082 O   0  0  0  0  0  0  0  0  0  0  0  0
   15.4735   68.1591   -4.9081 O   0  0  0  0  0  0  0  0  0  0  0  0
   16.4541   69.7992   -3.4048 C   0  0  1  0  0  0  0  0  0  0  0  0
   16.4169   69.2053   -4.7975 C   0  0  2  0  0  0  0  0  0  0  0  0
   17.0515   71.1769   -3.6623 C   0  0  1  0  0  0  0  0  0  0  0  0
   16.0532   70.4125   -5.6451 C   0  0  2  0  0  0  0  0  0  0  0  0
   14.7270   69.1142   -2.7359 H   0  0  0  0  0  0  0  0  0  0  0  0
   15.7493   67.4146   -4.3509 H   0  0  0  0  0  0  0  0  0  0  0  0
   14.4966   70.3404   -8.0009 O   0  0  0  0  0  0  0  0  0  0  0  0
   18.2366   70.1040  -10.6837 O   0  0  0  0  0  0  0  0  0  0  0  0
   16.5941   70.3326   -6.9727 N   0  0  0  0  0  0  0  0  0  0  0  0
   16.3601   70.2229   -9.3348 N   0  0  0  0  0  0  0  0  0  0  0  0
   15.7256   70.3010   -8.0885 C   0  0  0  0  0  0  0  0  0  0  0  0
   17.9716   70.2867   -7.1581 C   0  0  0  0  0  0  0  0  0  0  0  0
   18.5609   70.2110   -8.3532 C   0  0  0  0  0  0  0  0  0  0  0  0
   17.7249   70.1736   -9.5705 C   0  0  0  0  0  0  0  0  0  0  0  0
   15.7750   70.1993  -10.1266 H   0  0  0  0  0  0  0  0  0  0  0  0
   20.3840   72.6330   -2.1373 O   0  0  0  0  0  0  0  0  0  0  0  0
   21.8662   72.0112   -1.9657 P   0  0  2  0  0  0  0  0  0  0  0  0
   22.3573   71.7962   -3.4922 O   0  0  0  0  0  0  0  0  0  0  0  0
   21.9199   70.7734   -1.1178 O   0  0  0  0  0  0  0  0  0  0  0  0
   22.7624   73.2366   -1.4179 O   0  0  0  0  0  0  0  0  0  0  0  0
   22.3114   74.1608    0.7173 O   0  0  0  0  0  0  0  0  0  0  0  0
   24.3504   77.3363   -0.9587 O   0  0  0  0  0  0  0  0  0  0  0  0
   25.6199   75.7478    1.0694 O   0  0  0  0  0  0  0  0  0  0  0  0
   22.5191   75.7820   -2.5742 O   0  0  0  0  0  0  0  0  0  0  0  0
   24.0518   75.9574   -0.7245 C   0  0  1  0  0  0  0  0  0  0  0  0
   24.2290   75.6753    0.7687 C   0  0  1  0  0  0  0  0  0  0  0  0
   22.6140   75.6775   -1.1577 C   0  0  2  0  0  0  0  0  0  0  0  0
   23.6730   74.2943    1.1413 C   0  0  1  0  0  0  0  0  0  0  0  0
   22.1432   74.2975   -0.6951 C   0  0  1  0  0  0  0  0  0  0  0  0
   25.2622   77.5206   -0.6863 H   0  0  0  0  0  0  0  0  0  0  0  0
   25.9586   76.6246    0.8289 H   0  0  0  0  0  0  0  0  0  0  0  0
   22.8196   76.6601   -2.8544 H   0  0  0  0  0  0  0  0  0  0  0  0
   25.0420   73.9021    3.0599 O   0  0  0  0  0  0  0  0  0  0  0  0
   23.6959   74.0565    2.6497 C   0  0  0  0  0  0  0  0  0  0  0  0
   25.0721   73.7503    4.0179 H   0  0  0  0  0  0  0  0  0  0  0  0
 25 28  1  0
 25 24  1  0
 25 26  1  6
 25 27  2  0
  1  4  1  0
  1 24  1  0
  1  2  1  1
  1  3  2  0
  6 11  1  0
  6 12  1  0
 29 36  1  0
 29 37  1  0
  9  7  1  6
  7 13  1  0
 10  8  1  1
  8 14  1  0
 37 28  1  6
  4  5  1  0
 33 30  1  1
 30 38  1  0
 34 31  1  6
 31 39  1  0
 35 32  1  6
 32 40  1  0
 41 42  1  0
 41 43  1  0
 15 19  2  0
 16 22  2  0
 12 17  1  6
 17 19  1  0
 17 20  1  0
 18 19  1  0
 18 22  1  0
 18 23  1  0
  9 10  1  0
  9 11  1  0
 10 12  1  0
 11  5  1  6
 33 34  1  0
 33 35  1  0
 34 36  1  0
 35 37  1  0
 36 42  1  1
 20 21  2  0
 21 22  1  0
M  CHG  2   2  -1  26  -1
M  END
>  <COMPND>  (68) 
    8629 

>  <AUTHOR>  (68) 
    GENERATED BY OPEN BABEL 3.1.1

>  <MASTER>  (68) 
        0    0    0    0    0    0    0    0   58    0   58    0

>  <minimizedAffinity>  (68) 
-7.16097

>  <CNNscore>  (68) 
0.5419219136

>  <CNNaffinity>  (68) 
4.2930765152

>  <CNN_VS>  (68) 
2.3265123367

>  <CNNaffinity_variance>  (68) 
0.0700993240

$$$$
69
     RDKit          3D

 43 45  0  0  0  0  0  0  0  0999 V2000
   16.5480   72.2737   -3.2677 P   0  0  2  0  0  0  0  0  0  0  0  0
   15.2118   71.3618   -3.2451 O   0  0  0  0  0  0  0  0  0  0  0  0
   16.9366   72.8614   -1.9429 O   0  0  0  0  0  0  0  0  0  0  0  0
   16.2719   73.3379   -4.4547 O   0  0  0  0  0  0  0  0  0  0  0  0
   15.0007   73.3379   -5.0806 C   0  0  0  0  0  0  0  0  0  0  0  0
   16.2662   73.8930   -7.0463 O   0  0  0  0  0  0  0  0  0  0  0  0
   13.7463   75.1396   -8.0888 O   0  0  0  0  0  0  0  0  0  0  0  0
   13.8060   72.7433   -9.3890 O   0  0  0  0  0  0  0  0  0  0  0  0
   13.9104   73.9681   -7.2913 C   0  0  1  0  0  0  0  0  0  0  0  0
   14.4482   72.8300   -8.1333 C   0  0  2  0  0  0  0  0  0  0  0  0
   15.0593   74.2173   -6.3222 C   0  0  1  0  0  0  0  0  0  0  0  0
   15.9185   73.1937   -8.2525 C   0  0  2  0  0  0  0  0  0  0  0  0
   13.0177   75.0046   -8.7155 H   0  0  0  0  0  0  0  0  0  0  0  0
   12.8735   72.5097   -9.2600 H   0  0  0  0  0  0  0  0  0  0  0  0
   17.4237   72.5627  -10.5578 O   0  0  0  0  0  0  0  0  0  0  0  0
   19.1109   68.7311   -8.6307 O   0  0  0  0  0  0  0  0  0  0  0  0
   16.7601   72.0375   -8.3804 N   0  0  0  0  0  0  0  0  0  0  0  0
   18.2627   70.6554   -9.5963 N   0  0  0  0  0  0  0  0  0  0  0  0
   17.4729   71.8121   -9.5811 C   0  0  0  0  0  0  0  0  0  0  0  0
   16.8725   71.1418   -7.3226 C   0  0  0  0  0  0  0  0  0  0  0  0
   17.6290   70.0427   -7.3535 C   0  0  0  0  0  0  0  0  0  0  0  0
   18.4062   69.7339   -8.5712 C   0  0  0  0  0  0  0  0  0  0  0  0
   18.7681   70.4777  -10.4226 H   0  0  0  0  0  0  0  0  0  0  0  0
   17.6515   71.2856   -3.9150 O   0  0  0  0  0  0  0  0  0  0  0  0
   18.5777   70.1435   -3.2437 P   0  0  2  0  0  0  0  0  0  0  0  0
   19.4253   69.5693   -4.4965 O   0  0  0  0  0  0  0  0  0  0  0  0
   17.8128   69.0994   -2.4829 O   0  0  0  0  0  0  0  0  0  0  0  0
   19.6558   70.9584   -2.3613 O   0  0  0  0  0  0  0  0  0  0  0  0
   20.7792   72.6061   -3.6417 O   0  0  0  0  0  0  0  0  0  0  0  0
   23.0877   72.7418   -0.2207 O   0  0  0  0  0  0  0  0  0  0  0  0
   21.2895   74.9037   -0.8045 O   0  0  0  0  0  0  0  0  0  0  0  0
   22.0920   70.2028   -1.1910 O   0  0  0  0  0  0  0  0  0  0  0  0
   21.8805   72.5921   -0.9729 C   0  0  1  0  0  0  0  0  0  0  0  0
   21.6325   73.8896   -1.7448 C   0  0  1  0  0  0  0  0  0  0  0  0
   22.0343   71.4153   -1.9346 C   0  0  2  0  0  0  0  0  0  0  0  0
   20.5092   73.7147   -2.7758 C   0  0  1  0  0  0  0  0  0  0  0  0
   20.8902   71.3615   -2.9487 C   0  0  1  0  0  0  0  0  0  0  0  0
   22.9965   73.4871    0.3922 H   0  0  0  0  0  0  0  0  0  0  0  0
   22.0068   75.0037   -0.1590 H   0  0  0  0  0  0  0  0  0  0  0  0
   22.8203   70.2493   -0.5529 H   0  0  0  0  0  0  0  0  0  0  0  0
   21.4390   75.8195   -3.4194 O   0  0  0  0  0  0  0  0  0  0  0  0
   20.3516   74.9467   -3.6642 C   0  0  0  0  0  0  0  0  0  0  0  0
   21.3521   76.6081   -3.9783 H   0  0  0  0  0  0  0  0  0  0  0  0
 25 28  1  0
 25 24  1  0
 25 26  1  6
 25 27  2  0
  1  4  1  0
  1 24  1  0
  1  2  1  1
  1  3  2  0
  6 11  1  0
  6 12  1  0
 29 36  1  0
 29 37  1  0
  9  7  1  6
  7 13  1  0
 10  8  1  6
  8 14  1  0
 37 28  1  1
  4  5  1  0
 33 30  1  6
 30 38  1  0
 34 31  1  1
 31 39  1  0
 35 32  1  1
 32 40  1  0
 41 42  1  0
 41 43  1  0
 15 19  2  0
 16 22  2  0
 12 17  1  1
 17 19  1  0
 17 20  1  0
 18 19  1  0
 18 22  1  0
 18 23  1  0
  9 10  1  0
  9 11  1  0
 10 12  1  0
 11  5  1  1
 33 34  1  0
 33 35  1  0
 34 36  1  0
 35 37  1  0
 36 42  1  6
 20 21  2  0
 21 22  1  0
M  CHG  2   2  -1  26  -1
M  END
>  <COMPND>  (69) 
    8629 

>  <AUTHOR>  (69) 
    GENERATED BY OPEN BABEL 3.1.1

>  <MASTER>  (69) 
        0    0    0    0    0    0    0    0   58    0   58    0

>  <minimizedAffinity>  (69) 
-6.97324

>  <CNNscore>  (69) 
0.5287444592

>  <CNNaffinity>  (69) 
4.2455530167

>  <CNN_VS>  (69) 
2.2448127270

>  <CNNaffinity_variance>  (69) 
0.2493945807

$$$$
70
     RDKit          3D

 43 45  0  0  0  0  0  0  0  0999 V2000
   19.4178   71.9343   -4.5047 P   0  0  2  0  0  0  0  0  0  0  0  0
   18.1397   72.3788   -3.6179 O   0  0  0  0  0  0  0  0  0  0  0  0
   20.2073   73.0676   -5.0911 O   0  0  0  0  0  0  0  0  0  0  0  0
   18.8050   70.8805   -5.5685 O   0  0  0  0  0  0  0  0  0  0  0  0
   18.6979   71.2744   -6.9254 C   0  0  0  0  0  0  0  0  0  0  0  0
   17.2932   69.3309   -6.7725 O   0  0  0  0  0  0  0  0  0  0  0  0
   16.7776   69.7036   -9.7027 O   0  0  0  0  0  0  0  0  0  0  0  0
   14.5297   70.7482   -8.5660 O   0  0  0  0  0  0  0  0  0  0  0  0
   16.9573   70.6880   -8.6859 C   0  0  1  0  0  0  0  0  0  0  0  0
   15.7239   70.7715   -7.8110 C   0  0  2  0  0  0  0  0  0  0  0  0
   18.0052   70.1684   -7.7096 C   0  0  1  0  0  0  0  0  0  0  0  0
   15.8809   69.5457   -6.9273 C   0  0  2  0  0  0  0  0  0  0  0  0
   16.1129   70.0132  -10.3384 H   0  0  0  0  0  0  0  0  0  0  0  0
   14.4761   71.5485   -9.1114 H   0  0  0  0  0  0  0  0  0  0  0  0
   14.7052   67.4763   -5.4064 O   0  0  0  0  0  0  0  0  0  0  0  0
   13.6503   70.3555   -1.9656 O   0  0  0  0  0  0  0  0  0  0  0  0
   15.2917   69.7264   -5.6305 N   0  0  0  0  0  0  0  0  0  0  0  0
   14.1811   68.9116   -3.6943 N   0  0  0  0  0  0  0  0  0  0  0  0
   14.7272   68.6217   -4.9512 C   0  0  0  0  0  0  0  0  0  0  0  0
   15.2781   70.9878   -5.0452 C   0  0  0  0  0  0  0  0  0  0  0  0
   14.7522   71.2478   -3.8464 C   0  0  0  0  0  0  0  0  0  0  0  0
   14.1422   70.1486   -3.0707 C   0  0  0  0  0  0  0  0  0  0  0  0
   13.7818   68.1575   -3.2027 H   0  0  0  0  0  0  0  0  0  0  0  0
   20.2502   70.9871   -3.4933 O   0  0  0  0  0  0  0  0  0  0  0  0
   21.3855   71.3420   -2.3987 P   0  0  2  0  0  0  0  0  0  0  0  0
   22.6333   71.8328   -3.3041 O   0  0  0  0  0  0  0  0  0  0  0  0
   21.7073   70.2164   -1.4588 O   0  0  0  0  0  0  0  0  0  0  0  0
   20.8525   72.6839   -1.6776 O   0  0  0  0  0  0  0  0  0  0  0  0
   20.9617   75.0383   -1.9259 O   0  0  0  0  0  0  0  0  0  0  0  0
   22.2635   74.7258    1.9803 O   0  0  0  0  0  0  0  0  0  0  0  0
   19.6407   75.7629    1.4384 O   0  0  0  0  0  0  0  0  0  0  0  0
   23.0835   72.7569    0.0231 O   0  0  0  0  0  0  0  0  0  0  0  0
   21.4878   74.3691    0.8329 C   0  0  1  0  0  0  0  0  0  0  0  0
   20.6358   75.5763    0.4358 C   0  0  1  0  0  0  0  0  0  0  0  0
   22.4295   73.9782   -0.3044 C   0  0  2  0  0  0  0  0  0  0  0  0
   19.9799   75.3644   -0.9353 C   0  0  1  0  0  0  0  0  0  0  0  0
   21.6840   73.8406   -1.6331 C   0  0  1  0  0  0  0  0  0  0  0  0
   21.6714   74.9746    2.7063 H   0  0  0  0  0  0  0  0  0  0  0  0
   20.0681   75.8951    2.2993 H   0  0  0  0  0  0  0  0  0  0  0  0
   23.5520   72.8570    0.8659 H   0  0  0  0  0  0  0  0  0  0  0  0
   17.9057   76.5490   -0.9963 O   0  0  0  0  0  0  0  0  0  0  0  0
   19.2543   76.6170   -1.4218 C   0  0  0  0  0  0  0  0  0  0  0  0
   17.4317   77.3400   -1.2986 H   0  0  0  0  0  0  0  0  0  0  0  0
 25 28  1  0
 25 24  1  0
 25 26  1  6
 25 27  2  0
  1  4  1  0
  1 24  1  0
  1  2  1  1
  1  3  2  0
  6 11  1  0
  6 12  1  0
 29 36  1  0
 29 37  1  0
  9  7  1  6
  7 13  1  0
 10  8  1  6
  8 14  1  0
 37 28  1  1
  4  5  1  0
 33 30  1  1
 30 38  1  0
 34 31  1  1
 31 39  1  0
 35 32  1  1
 32 40  1  0
 41 42  1  0
 41 43  1  0
 15 19  2  0
 16 22  2  0
 12 17  1  1
 17 19  1  0
 17 20  1  0
 18 19  1  0
 18 22  1  0
 18 23  1  0
  9 10  1  0
  9 11  1  0
 10 12  1  0
 11  5  1  1
 33 34  1  0
 33 35  1  0
 34 36  1  0
 35 37  1  0
 36 42  1  6
 20 21  2  0
 21 22  1  0
M  CHG  2   2  -1  26  -1
M  END
>  <COMPND>  (70) 
    8629 

>  <AUTHOR>  (70) 
    GENERATED BY OPEN BABEL 3.1.1

>  <MASTER>  (70) 
        0    0    0    0    0    0    0    0   58    0   58    0

>  <minimizedAffinity>  (70) 
-7.22819

>  <CNNscore>  (70) 
0.5184686184

>  <CNNaffinity>  (70) 
4.1708145142

>  <CNN_VS>  (70) 
2.1624364853

>  <CNNaffinity_variance>  (70) 
0.2107011527

$$$$
71
     RDKit          3D

 43 45  0  0  0  0  0  0  0  0999 V2000
   21.4045   70.9380   -2.2326 P   0  0  2  0  0  0  0  0  0  0  0  0
   22.3408   69.9660   -3.1249 O   0  0  0  0  0  0  0  0  0  0  0  0
   21.8960   71.1849   -0.8366 O   0  0  0  0  0  0  0  0  0  0  0  0
   19.9326   70.2768   -2.3527 O   0  0  0  0  0  0  0  0  0  0  0  0
   19.2881   70.2862   -3.6146 C   0  0  0  0  0  0  0  0  0  0  0  0
   17.4537   71.4099   -4.6853 O   0  0  0  0  0  0  0  0  0  0  0  0
   15.7348   70.2874   -2.4998 O   0  0  0  0  0  0  0  0  0  0  0  0
   15.2152   68.6096   -4.5858 O   0  0  0  0  0  0  0  0  0  0  0  0
   16.8548   69.6989   -3.1589 C   0  0  1  0  0  0  0  0  0  0  0  0
   16.4707   69.2574   -4.5557 C   0  0  2  0  0  0  0  0  0  0  0  0
   17.8663   70.8028   -3.4413 C   0  0  1  0  0  0  0  0  0  0  0  0
   16.4672   70.5745   -5.3128 C   0  0  2  0  0  0  0  0  0  0  0  0
   15.0752   69.6016   -2.3089 H   0  0  0  0  0  0  0  0  0  0  0  0
   15.2687   67.7771   -4.0909 H   0  0  0  0  0  0  0  0  0  0  0  0
   14.6027   70.6439   -7.4333 O   0  0  0  0  0  0  0  0  0  0  0  0
   17.8872   69.9335  -10.5875 O   0  0  0  0  0  0  0  0  0  0  0  0
   16.8077   70.4109   -6.6980 N   0  0  0  0  0  0  0  0  0  0  0  0
   16.2397   70.2903   -9.0021 N   0  0  0  0  0  0  0  0  0  0  0  0
   15.7957   70.4615   -7.6847 C   0  0  0  0  0  0  0  0  0  0  0  0
   18.1326   70.2034   -7.0661 C   0  0  0  0  0  0  0  0  0  0  0  0
   18.5394   70.0406   -8.3268 C   0  0  0  0  0  0  0  0  0  0  0  0
   17.5448   70.0799   -9.4182 C   0  0  0  0  0  0  0  0  0  0  0  0
   15.5521   70.3214   -9.7065 H   0  0  0  0  0  0  0  0  0  0  0  0
   21.2823   72.2651   -3.1474 O   0  0  0  0  0  0  0  0  0  0  0  0
   20.5694   73.6879   -2.8639 P   0  0  2  0  0  0  0  0  0  0  0  0
   21.7775   74.6015   -2.2955 O   0  0  0  0  0  0  0  0  0  0  0  0
   19.3745   73.6079   -1.9585 O   0  0  0  0  0  0  0  0  0  0  0  0
   20.2589   74.2884   -4.3295 O   0  0  0  0  0  0  0  0  0  0  0  0
   19.0513   73.5229   -6.2196 O   0  0  0  0  0  0  0  0  0  0  0  0
   22.4048   74.9914   -8.1297 O   0  0  0  0  0  0  0  0  0  0  0  0
   19.9199   76.4172   -8.3310 O   0  0  0  0  0  0  0  0  0  0  0  0
   22.6717   73.6175   -5.5958 O   0  0  0  0  0  0  0  0  0  0  0  0
   21.3854   74.9597   -7.1271 C   0  0  1  0  0  0  0  0  0  0  0  0
   20.0275   75.0915   -7.8196 C   0  0  1  0  0  0  0  0  0  0  0  0
   21.4747   73.6384   -6.3659 C   0  0  2  0  0  0  0  0  0  0  0  0
   18.8782   74.7997   -6.8454 C   0  0  1  0  0  0  0  0  0  0  0  0
   20.2591   73.4237   -5.4624 C   0  0  1  0  0  0  0  0  0  0  0  0
   22.3539   75.8281   -8.6164 H   0  0  0  0  0  0  0  0  0  0  0  0
   20.6517   76.5888   -8.9443 H   0  0  0  0  0  0  0  0  0  0  0  0
   23.4339   73.7542   -6.1792 H   0  0  0  0  0  0  0  0  0  0  0  0
   17.5214   73.6980   -8.4747 O   0  0  0  0  0  0  0  0  0  0  0  0
   17.5240   74.7707   -7.5508 C   0  0  0  0  0  0  0  0  0  0  0  0
   16.6655   73.6671   -8.9309 H   0  0  0  0  0  0  0  0  0  0  0  0
 25 28  1  0
 25 24  1  0
 25 26  1  1
 25 27  2  0
  1  4  1  0
  1 24  1  0
  1  2  1  6
  1  3  2  0
  6 11  1  0
  6 12  1  0
 29 36  1  0
 29 37  1  0
  9  7  1  6
  7 13  1  0
 10  8  1  1
  8 14  1  0
 37 28  1  1
  4  5  1  0
 33 30  1  6
 30 38  1  0
 34 31  1  1
 31 39  1  0
 35 32  1  1
 32 40  1  0
 41 42  1  0
 41 43  1  0
 15 19  2  0
 16 22  2  0
 12 17  1  6
 17 19  1  0
 17 20  1  0
 18 19  1  0
 18 22  1  0
 18 23  1  0
  9 10  1  0
  9 11  1  0
 10 12  1  0
 11  5  1  6
 33 34  1  0
 33 35  1  0
 34 36  1  0
 35 37  1  0
 36 42  1  6
 20 21  2  0
 21 22  1  0
M  CHG  2   2  -1  26  -1
M  END
>  <COMPND>  (71) 
    8629 

>  <AUTHOR>  (71) 
    GENERATED BY OPEN BABEL 3.1.1

>  <MASTER>  (71) 
        0    0    0    0    0    0    0    0   58    0   58    0

>  <minimizedAffinity>  (71) 
-7.26743

>  <CNNscore>  (71) 
0.5044463277

>  <CNNaffinity>  (71) 
4.1311483383

>  <CNN_VS>  (71) 
2.0839426517

>  <CNNaffinity_variance>  (71) 
0.6569157839

$$$$
72
     RDKit          3D

 43 45  0  0  0  0  0  0  0  0999 V2000
   21.4175   71.2551   -2.1912 P   0  0  2  0  0  0  0  0  0  0  0  0
   22.4680   70.7788   -3.3257 O   0  0  0  0  0  0  0  0  0  0  0  0
   21.9689   71.3014   -0.7964 O   0  0  0  0  0  0  0  0  0  0  0  0
   20.1421   70.2840   -2.4106 O   0  0  0  0  0  0  0  0  0  0  0  0
   19.4665   70.3261   -3.6555 C   0  0  0  0  0  0  0  0  0  0  0  0
   17.6297   71.4973   -4.6695 O   0  0  0  0  0  0  0  0  0  0  0  0
   15.9478   70.4085   -2.4387 O   0  0  0  0  0  0  0  0  0  0  0  0
   15.3282   68.7511   -4.5138 O   0  0  0  0  0  0  0  0  0  0  0  0
   17.0340   69.7957   -3.1316 C   0  0  1  0  0  0  0  0  0  0  0  0
   16.5993   69.3685   -4.5180 C   0  0  2  0  0  0  0  0  0  0  0  0
   18.0632   70.8760   -3.4397 C   0  0  1  0  0  0  0  0  0  0  0  0
   16.6058   70.6881   -5.2708 C   0  0  2  0  0  0  0  0  0  0  0  0
   15.2777   69.7379   -2.2308 H   0  0  0  0  0  0  0  0  0  0  0  0
   15.3759   67.9159   -4.0231 H   0  0  0  0  0  0  0  0  0  0  0  0
   14.6700   70.1807   -7.2641 O   0  0  0  0  0  0  0  0  0  0  0  0
   17.8587   70.0650  -10.5898 O   0  0  0  0  0  0  0  0  0  0  0  0
   16.9023   70.5215   -6.6657 N   0  0  0  0  0  0  0  0  0  0  0  0
   16.2593   70.1237   -8.9184 N   0  0  0  0  0  0  0  0  0  0  0  0
   15.8571   70.2691   -7.5846 C   0  0  0  0  0  0  0  0  0  0  0  0
   18.2171   70.6090   -7.1100 C   0  0  0  0  0  0  0  0  0  0  0  0
   18.5842   70.4667   -8.3852 C   0  0  0  0  0  0  0  0  0  0  0  0
   17.5531   70.2008   -9.4091 C   0  0  0  0  0  0  0  0  0  0  0  0
   15.5483   69.9469   -9.5764 H   0  0  0  0  0  0  0  0  0  0  0  0
   20.8933   72.6765   -2.7549 O   0  0  0  0  0  0  0  0  0  0  0  0
   21.5053   74.1658   -2.6127 P   0  0  2  0  0  0  0  0  0  0  0  0
   22.9508   73.9096   -1.9327 O   0  0  0  0  0  0  0  0  0  0  0  0
   20.6273   75.1225   -1.8592 O   0  0  0  0  0  0  0  0  0  0  0  0
   21.8407   74.6159   -4.1259 O   0  0  0  0  0  0  0  0  0  0  0  0
   21.1623   76.4788   -5.4243 O   0  0  0  0  0  0  0  0  0  0  0  0
   20.9814   73.5494   -8.3288 O   0  0  0  0  0  0  0  0  0  0  0  0
   23.0934   75.4939   -8.4058 O   0  0  0  0  0  0  0  0  0  0  0  0
   20.1466   72.9526   -5.6221 O   0  0  0  0  0  0  0  0  0  0  0  0
   21.5033   74.2042   -7.1694 C   0  0  1  0  0  0  0  0  0  0  0  0
   21.9442   75.6128   -7.5719 C   0  0  1  0  0  0  0  0  0  0  0  0
   20.4151   74.2666   -6.0991 C   0  0  2  0  0  0  0  0  0  0  0  0
   22.2655   76.4665   -6.3378 C   0  0  1  0  0  0  0  0  0  0  0  0
   20.8154   75.1802   -4.9393 C   0  0  1  0  0  0  0  0  0  0  0  0
   21.6675   73.5060   -9.0121 H   0  0  0  0  0  0  0  0  0  0  0  0
   22.8772   74.9522   -9.1811 H   0  0  0  0  0  0  0  0  0  0  0  0
   19.8940   72.3841   -6.3657 H   0  0  0  0  0  0  0  0  0  0  0  0
   23.8996   78.0140   -7.1403 O   0  0  0  0  0  0  0  0  0  0  0  0
   22.5550   77.9197   -6.7072 C   0  0  0  0  0  0  0  0  0  0  0  0
   24.0980   78.9334   -7.3791 H   0  0  0  0  0  0  0  0  0  0  0  0
 25 28  1  0
 25 24  1  0
 25 26  1  1
 25 27  2  0
  1  4  1  0
  1 24  1  0
  1  2  1  6
  1  3  2  0
  6 11  1  0
  6 12  1  0
 29 36  1  0
 29 37  1  0
  9  7  1  1
  7 13  1  0
 10  8  1  1
  8 14  1  0
 37 28  1  6
  4  5  1  0
 33 30  1  6
 30 38  1  0
 34 31  1  6
 31 39  1  0
 35 32  1  1
 32 40  1  0
 41 42  1  0
 41 43  1  0
 15 19  2  0
 16 22  2  0
 12 17  1  6
 17 19  1  0
 17 20  1  0
 18 19  1  0
 18 22  1  0
 18 23  1  0
  9 10  1  0
  9 11  1  0
 10 12  1  0
 11  5  1  6
 33 34  1  0
 33 35  1  0
 34 36  1  0
 35 37  1  0
 36 42  1  6
 20 21  2  0
 21 22  1  0
M  CHG  2   2  -1  26  -1
M  END
>  <COMPND>  (72) 
    8629 

>  <AUTHOR>  (72) 
    GENERATED BY OPEN BABEL 3.1.1

>  <MASTER>  (72) 
        0    0    0    0    0    0    0    0   58    0   58    0

>  <minimizedAffinity>  (72) 
-7.05224

>  <CNNscore>  (72) 
0.4829207957

>  <CNNaffinity>  (72) 
4.2825918198

>  <CNN_VS>  (72) 
2.0681526661

>  <CNNaffinity_variance>  (72) 
0.2053753436

$$$$
73
     RDKit          3D

 43 45  0  0  0  0  0  0  0  0999 V2000
   20.5418   73.2572   -6.4910 P   0  0  2  0  0  0  0  0  0  0  0  0
   19.7244   74.4335   -5.7390 O   0  0  0  0  0  0  0  0  0  0  0  0
   21.9921   73.5517   -6.7387 O   0  0  0  0  0  0  0  0  0  0  0  0
   19.6531   72.9469   -7.8070 O   0  0  0  0  0  0  0  0  0  0  0  0
   18.2770   72.6536   -7.6398 C   0  0  0  0  0  0  0  0  0  0  0  0
   17.6518   70.3868   -7.1451 O   0  0  0  0  0  0  0  0  0  0  0  0
   16.9263   70.1517  -10.0450 O   0  0  0  0  0  0  0  0  0  0  0  0
   14.4999   70.5072   -8.8521 O   0  0  0  0  0  0  0  0  0  0  0  0
   16.7873   71.2683   -9.1679 C   0  0  1  0  0  0  0  0  0  0  0  0
   15.6378   71.0430   -8.2080 C   0  0  2  0  0  0  0  0  0  0  0  0
   17.9876   71.2800   -8.2295 C   0  0  1  0  0  0  0  0  0  0  0  0
   16.2492   70.0801   -7.2045 C   0  0  2  0  0  0  0  0  0  0  0  0
   16.1713   70.1234  -10.6542 H   0  0  0  0  0  0  0  0  0  0  0  0
   14.1477   71.1570   -9.4802 H   0  0  0  0  0  0  0  0  0  0  0  0
   16.1228   68.0119   -5.2850 O   0  0  0  0  0  0  0  0  0  0  0  0
   14.0585   70.7485   -2.2042 O   0  0  0  0  0  0  0  0  0  0  0  0
   15.6843   70.2246   -5.8925 N   0  0  0  0  0  0  0  0  0  0  0  0
   15.0952   69.3762   -3.7525 N   0  0  0  0  0  0  0  0  0  0  0  0
   15.6692   69.1235   -5.0049 C   0  0  0  0  0  0  0  0  0  0  0  0
   15.1535   71.4477   -5.4974 C   0  0  0  0  0  0  0  0  0  0  0  0
   14.6085   71.6720   -4.2999 C   0  0  0  0  0  0  0  0  0  0  0  0
   14.5533   70.5739   -3.3135 C   0  0  0  0  0  0  0  0  0  0  0  0
   15.0733   68.6237   -3.1177 H   0  0  0  0  0  0  0  0  0  0  0  0
   20.2674   71.9682   -5.5550 O   0  0  0  0  0  0  0  0  0  0  0  0
   19.6487   71.8497   -4.0664 P   0  0  2  0  0  0  0  0  0  0  0  0
   19.9654   70.3177   -3.6538 O   0  0  0  0  0  0  0  0  0  0  0  0
   18.1996   72.2300   -3.9702 O   0  0  0  0  0  0  0  0  0  0  0  0
   20.6347   72.7328   -3.1427 O   0  0  0  0  0  0  0  0  0  0  0  0
   22.8303   73.4594   -3.6604 O   0  0  0  0  0  0  0  0  0  0  0  0
   23.2326   73.0013    0.4236 O   0  0  0  0  0  0  0  0  0  0  0  0
   23.1361   75.6406   -0.7045 O   0  0  0  0  0  0  0  0  0  0  0  0
   21.6523   71.1086   -1.0930 O   0  0  0  0  0  0  0  0  0  0  0  0
   22.5484   73.3237   -0.7902 C   0  0  1  0  0  0  0  0  0  0  0  0
   23.3070   74.4585   -1.4814 C   0  0  1  0  0  0  0  0  0  0  0  0
   22.5044   72.0847   -1.6826 C   0  0  2  0  0  0  0  0  0  0  0  0
   22.7924   74.6790   -2.9102 C   0  0  1  0  0  0  0  0  0  0  0  0
   22.0250   72.4230   -3.0954 C   0  0  1  0  0  0  0  0  0  0  0  0
   23.2637   73.7836    0.9950 H   0  0  0  0  0  0  0  0  0  0  0  0
   23.4645   75.4878    0.1955 H   0  0  0  0  0  0  0  0  0  0  0  0
   21.9665   70.9028   -0.1992 H   0  0  0  0  0  0  0  0  0  0  0  0
   24.9049   75.7870   -3.0465 O   0  0  0  0  0  0  0  0  0  0  0  0
   23.6379   75.6976   -3.6717 C   0  0  0  0  0  0  0  0  0  0  0  0
   25.4540   76.4315   -3.5207 H   0  0  0  0  0  0  0  0  0  0  0  0
 25 28  1  0
 25 24  1  0
 25 26  1  1
 25 27  2  0
  1  4  1  0
  1 24  1  0
  1  2  1  1
  1  3  2  0
  6 11  1  0
  6 12  1  0
 29 36  1  0
 29 37  1  0
  9  7  1  6
  7 13  1  0
 10  8  1  6
  8 14  1  0
 37 28  1  1
  4  5  1  0
 33 30  1  1
 30 38  1  0
 34 31  1  1
 31 39  1  0
 35 32  1  1
 32 40  1  0
 41 42  1  0
 41 43  1  0
 15 19  2  0
 16 22  2  0
 12 17  1  1
 17 19  1  0
 17 20  1  0
 18 19  1  0
 18 22  1  0
 18 23  1  0
  9 10  1  0
  9 11  1  0
 10 12  1  0
 11  5  1  1
 33 34  1  0
 33 35  1  0
 34 36  1  0
 35 37  1  0
 36 42  1  6
 20 21  2  0
 21 22  1  0
M  CHG  2   2  -1  26  -1
M  END
>  <COMPND>  (73) 
    8629 

>  <AUTHOR>  (73) 
    GENERATED BY OPEN BABEL 3.1.1

>  <MASTER>  (73) 
        0    0    0    0    0    0    0    0   58    0   58    0

>  <minimizedAffinity>  (73) 
-6.92039

>  <CNNscore>  (73) 
0.4796670973

>  <CNNaffinity>  (73) 
4.2852935791

>  <CNN_VS>  (73) 
2.0555143356

>  <CNNaffinity_variance>  (73) 
0.1987823695

$$$$
74
     RDKit          3D

 43 45  0  0  0  0  0  0  0  0999 V2000
   21.3957   71.0811   -2.2221 P   0  0  2  0  0  0  0  0  0  0  0  0
   22.4857   71.4198   -3.3687 O   0  0  0  0  0  0  0  0  0  0  0  0
   21.9211   70.2855   -1.0635 O   0  0  0  0  0  0  0  0  0  0  0  0
   20.1702   70.4094   -3.0375 O   0  0  0  0  0  0  0  0  0  0  0  0
   19.5329   71.1708   -4.0485 C   0  0  0  0  0  0  0  0  0  0  0  0
   17.3598   71.5619   -4.9963 O   0  0  0  0  0  0  0  0  0  0  0  0
   16.2652   70.1060   -2.6144 O   0  0  0  0  0  0  0  0  0  0  0  0
   16.1755   68.2039   -4.5666 O   0  0  0  0  0  0  0  0  0  0  0  0
   17.4658   69.8643   -3.3461 C   0  0  1  0  0  0  0  0  0  0  0  0
   17.1482   69.2226   -4.6806 C   0  0  2  0  0  0  0  0  0  0  0  0
   18.0368   71.2121   -3.7692 C   0  0  1  0  0  0  0  0  0  0  0  0
   16.6590   70.4098   -5.4927 C   0  0  2  0  0  0  0  0  0  0  0  0
   15.8822   69.2597   -2.3333 H   0  0  0  0  0  0  0  0  0  0  0  0
   16.5342   67.4714   -4.0417 H   0  0  0  0  0  0  0  0  0  0  0  0
   14.7235   70.6689   -7.5334 O   0  0  0  0  0  0  0  0  0  0  0  0
   17.8273   69.8322  -10.8360 O   0  0  0  0  0  0  0  0  0  0  0  0
   16.9338   70.2650   -6.8944 N   0  0  0  0  0  0  0  0  0  0  0  0
   16.2706   70.2523   -9.1762 N   0  0  0  0  0  0  0  0  0  0  0  0
   15.8905   70.4137   -7.8377 C   0  0  0  0  0  0  0  0  0  0  0  0
   18.2261   69.9792   -7.3214 C   0  0  0  0  0  0  0  0  0  0  0  0
   18.5719   69.8270   -8.6014 C   0  0  0  0  0  0  0  0  0  0  0  0
   17.5411   69.9664   -9.6503 C   0  0  0  0  0  0  0  0  0  0  0  0
   15.5602   70.3510   -9.8510 H   0  0  0  0  0  0  0  0  0  0  0  0
   20.8159   72.5382   -1.8300 O   0  0  0  0  0  0  0  0  0  0  0  0
   21.5667   73.8814   -1.3352 P   0  0  2  0  0  0  0  0  0  0  0  0
   22.9738   73.3290   -0.7585 O   0  0  0  0  0  0  0  0  0  0  0  0
   20.7770   74.7035   -0.3582 O   0  0  0  0  0  0  0  0  0  0  0  0
   21.9595   74.6548   -2.6963 O   0  0  0  0  0  0  0  0  0  0  0  0
   20.1216   75.6282   -3.8326 O   0  0  0  0  0  0  0  0  0  0  0  0
   22.9617   75.8999   -6.8176 O   0  0  0  0  0  0  0  0  0  0  0  0
   22.1217   78.2753   -5.4392 O   0  0  0  0  0  0  0  0  0  0  0  0
   22.8784   73.5623   -5.1123 O   0  0  0  0  0  0  0  0  0  0  0  0
   22.4825   75.9110   -5.4702 C   0  0  1  0  0  0  0  0  0  0  0  0
   21.4432   77.0262   -5.3400 C   0  0  1  0  0  0  0  0  0  0  0  0
   21.8579   74.5540   -5.1513 C   0  0  2  0  0  0  0  0  0  0  0  0
   20.6923   76.9306   -4.0050 C   0  0  1  0  0  0  0  0  0  0  0  0
   21.0940   74.5812   -3.8262 C   0  0  1  0  0  0  0  0  0  0  0  0
   23.3600   76.7586   -7.0263 H   0  0  0  0  0  0  0  0  0  0  0  0
   22.5921   78.3227   -6.2864 H   0  0  0  0  0  0  0  0  0  0  0  0
   23.3543   73.5549   -5.9569 H   0  0  0  0  0  0  0  0  0  0  0  0
   18.4204   77.3894   -4.5854 O   0  0  0  0  0  0  0  0  0  0  0  0
   19.5451   77.9351   -3.9209 C   0  0  0  0  0  0  0  0  0  0  0  0
   17.6823   78.0177   -4.5396 H   0  0  0  0  0  0  0  0  0  0  0  0
 25 28  1  0
 25 24  1  0
 25 26  1  1
 25 27  2  0
  1  4  1  0
  1 24  1  0
  1  2  1  6
  1  3  2  0
  6 11  1  0
  6 12  1  0
 29 36  1  0
 29 37  1  0
  9  7  1  1
  7 13  1  0
 10  8  1  1
  8 14  1  0
 37 28  1  1
  4  5  1  0
 33 30  1  6
 30 38  1  0
 34 31  1  1
 31 39  1  0
 35 32  1  1
 32 40  1  0
 41 42  1  0
 41 43  1  0
 15 19  2  0
 16 22  2  0
 12 17  1  6
 17 19  1  0
 17 20  1  0
 18 19  1  0
 18 22  1  0
 18 23  1  0
  9 10  1  0
  9 11  1  0
 10 12  1  0
 11  5  1  6
 33 34  1  0
 33 35  1  0
 34 36  1  0
 35 37  1  0
 36 42  1  6
 20 21  2  0
 21 22  1  0
M  CHG  2   2  -1  26  -1
M  END
>  <COMPND>  (74) 
    8629 

>  <AUTHOR>  (74) 
    GENERATED BY OPEN BABEL 3.1.1

>  <MASTER>  (74) 
        0    0    0    0    0    0    0    0   58    0   58    0

>  <minimizedAffinity>  (74) 
-7.16360

>  <CNNscore>  (74) 
0.4614023268

>  <CNNaffinity>  (74) 
4.2250723839

>  <CNN_VS>  (74) 
1.9494582415

>  <CNNaffinity_variance>  (74) 
0.1889136136

$$$$
75
     RDKit          3D

 43 45  0  0  0  0  0  0  0  0999 V2000
   16.1963   70.2995   -3.5519 P   0  0  2  0  0  0  0  0  0  0  0  0
   16.6012   68.7632   -3.8574 O   0  0  0  0  0  0  0  0  0  0  0  0
   15.4498   70.5149   -2.2683 O   0  0  0  0  0  0  0  0  0  0  0  0
   15.4328   70.7747   -4.8970 O   0  0  0  0  0  0  0  0  0  0  0  0
   15.7342   72.0526   -5.4299 C   0  0  0  0  0  0  0  0  0  0  0  0
   16.2936   72.8972   -7.6088 O   0  0  0  0  0  0  0  0  0  0  0  0
   14.5053   70.7493   -8.6948 O   0  0  0  0  0  0  0  0  0  0  0  0
   16.9928   69.6939   -9.0625 O   0  0  0  0  0  0  0  0  0  0  0  0
   15.3733   70.7139   -7.5631 C   0  0  1  0  0  0  0  0  0  0  0  0
   16.8171   70.6210   -8.0106 C   0  0  2  0  0  0  0  0  0  0  0  0
   15.3338   72.0843   -6.8985 C   0  0  1  0  0  0  0  0  0  0  0  0
   17.1077   72.0501   -8.4362 C   0  0  2  0  0  0  0  0  0  0  0  0
   14.5136   69.8846   -9.1356 H   0  0  0  0  0  0  0  0  0  0  0  0
   16.7961   68.7999   -8.7420 H   0  0  0  0  0  0  0  0  0  0  0  0
   19.2111   71.2020  -10.1198 O   0  0  0  0  0  0  0  0  0  0  0  0
   22.3591   73.4773   -7.6391 O   0  0  0  0  0  0  0  0  0  0  0  0
   18.4866   72.4063   -8.2538 N   0  0  0  0  0  0  0  0  0  0  0  0
   20.7768   72.3358   -8.8833 N   0  0  0  0  0  0  0  0  0  0  0  0
   19.4651   71.9266   -9.1554 C   0  0  0  0  0  0  0  0  0  0  0  0
   18.8567   73.2228   -7.1906 C   0  0  0  0  0  0  0  0  0  0  0  0
   20.1121   73.6029   -6.9443 C   0  0  0  0  0  0  0  0  0  0  0  0
   21.1948   73.1452   -7.8389 C   0  0  0  0  0  0  0  0  0  0  0  0
   21.4755   72.0135   -9.4979 H   0  0  0  0  0  0  0  0  0  0  0  0
   17.6121   71.0739   -3.6449 O   0  0  0  0  0  0  0  0  0  0  0  0
   19.1251   70.5125   -3.7374 P   0  0  2  0  0  0  0  0  0  0  0  0
   19.3610   70.3420   -5.3289 O   0  0  0  0  0  0  0  0  0  0  0  0
   19.3685   69.2651   -2.9382 O   0  0  0  0  0  0  0  0  0  0  0  0
   20.0522   71.7659   -3.3198 O   0  0  0  0  0  0  0  0  0  0  0  0
   22.0177   72.7689   -4.1843 O   0  0  0  0  0  0  0  0  0  0  0  0
   23.0162   72.7061   -0.1781 O   0  0  0  0  0  0  0  0  0  0  0  0
   22.3546   75.2019   -1.4355 O   0  0  0  0  0  0  0  0  0  0  0  0
   21.5736   70.4825   -1.3417 O   0  0  0  0  0  0  0  0  0  0  0  0
   22.1373   72.8238   -1.3001 C   0  0  1  0  0  0  0  0  0  0  0  0
   22.6089   74.0000   -2.1574 C   0  0  1  0  0  0  0  0  0  0  0  0
   22.1752   71.5245   -2.1024 C   0  0  2  0  0  0  0  0  0  0  0  0
   21.8841   74.0255   -3.5099 C   0  0  1  0  0  0  0  0  0  0  0  0
   21.4683   71.6725   -3.4509 C   0  0  1  0  0  0  0  0  0  0  0  0
   22.9964   73.5277    0.3358 H   0  0  0  0  0  0  0  0  0  0  0  0
   22.8175   75.1728   -0.5834 H   0  0  0  0  0  0  0  0  0  0  0  0
   22.0303   70.3986   -0.4906 H   0  0  0  0  0  0  0  0  0  0  0  0
   21.8361   76.3319   -4.1320 O   0  0  0  0  0  0  0  0  0  0  0  0
   22.4501   75.0945   -4.4420 C   0  0  0  0  0  0  0  0  0  0  0  0
   22.1870   77.0218   -4.7173 H   0  0  0  0  0  0  0  0  0  0  0  0
 25 28  1  0
 25 24  1  0
 25 26  1  6
 25 27  2  0
  1  4  1  0
  1 24  1  0
  1  2  1  6
  1  3  2  0
  6 11  1  0
  6 12  1  0
 29 36  1  0
 29 37  1  0
  9  7  1  6
  7 13  1  0
 10  8  1  6
  8 14  1  0
 37 28  1  1
  4  5  1  0
 33 30  1  1
 30 38  1  0
 34 31  1  1
 31 39  1  0
 35 32  1  1
 32 40  1  0
 41 42  1  0
 41 43  1  0
 15 19  2  0
 16 22  2  0
 12 17  1  1
 17 19  1  0
 17 20  1  0
 18 19  1  0
 18 22  1  0
 18 23  1  0
  9 10  1  0
  9 11  1  0
 10 12  1  0
 11  5  1  1
 33 34  1  0
 33 35  1  0
 34 36  1  0
 35 37  1  0
 36 42  1  6
 20 21  2  0
 21 22  1  0
M  CHG  2   2  -1  26  -1
M  END
>  <COMPND>  (75) 
    8629 

>  <AUTHOR>  (75) 
    GENERATED BY OPEN BABEL 3.1.1

>  <MASTER>  (75) 
        0    0    0    0    0    0    0    0   58    0   58    0

>  <minimizedAffinity>  (75) 
-7.86664

>  <CNNscore>  (75) 
0.4512632191

>  <CNNaffinity>  (75) 
4.1606945992

>  <CNN_VS>  (75) 
1.8775684834

>  <CNNaffinity_variance>  (75) 
0.5060406923

$$$$
76
     RDKit          3D

 43 45  0  0  0  0  0  0  0  0999 V2000
   16.4708   73.7989   -5.0145 P   0  0  2  0  0  0  0  0  0  0  0  0
   16.1813   72.3322   -4.3960 O   0  0  0  0  0  0  0  0  0  0  0  0
   15.2686   74.4972   -5.5788 O   0  0  0  0  0  0  0  0  0  0  0  0
   17.6893   73.5503   -6.0496 O   0  0  0  0  0  0  0  0  0  0  0  0
   17.3802   73.2898   -7.4077 C   0  0  0  0  0  0  0  0  0  0  0  0
   18.1034   71.0271   -7.0453 O   0  0  0  0  0  0  0  0  0  0  0  0
   19.0650   71.0777   -9.8849 O   0  0  0  0  0  0  0  0  0  0  0  0
   16.7089   69.7184  -10.0793 O   0  0  0  0  0  0  0  0  0  0  0  0
   17.9097   71.6885   -9.3126 C   0  0  1  0  0  0  0  0  0  0  0  0
   16.8524   70.6441   -9.0214 C   0  0  2  0  0  0  0  0  0  0  0  0
   18.2768   72.1681   -7.9139 C   0  0  1  0  0  0  0  0  0  0  0  0
   17.3847   70.0025   -7.7513 C   0  0  2  0  0  0  0  0  0  0  0  0
   18.8551   70.7636  -10.7790 H   0  0  0  0  0  0  0  0  0  0  0  0
   16.3677   70.1746  -10.8643 H   0  0  0  0  0  0  0  0  0  0  0  0
   14.7069   70.8967   -7.8389 O   0  0  0  0  0  0  0  0  0  0  0  0
   13.4432   68.0188   -4.4681 O   0  0  0  0  0  0  0  0  0  0  0  0
   16.3350   69.5039   -6.9082 N   0  0  0  0  0  0  0  0  0  0  0  0
   14.0798   69.4629   -6.1606 N   0  0  0  0  0  0  0  0  0  0  0  0
   15.0243   70.0209   -7.0316 C   0  0  0  0  0  0  0  0  0  0  0  0
   16.6099   68.5129   -5.9720 C   0  0  0  0  0  0  0  0  0  0  0  0
   15.6982   67.9923   -5.1479 C   0  0  0  0  0  0  0  0  0  0  0  0
   14.3044   68.4774   -5.2124 C   0  0  0  0  0  0  0  0  0  0  0  0
   13.1600   69.8079   -6.2283 H   0  0  0  0  0  0  0  0  0  0  0  0
   17.1866   74.5748   -3.7904 O   0  0  0  0  0  0  0  0  0  0  0  0
   17.4358   74.1343   -2.2552 P   0  0  2  0  0  0  0  0  0  0  0  0
   16.0011   73.5395   -1.8022 O   0  0  0  0  0  0  0  0  0  0  0  0
   17.9555   75.2346   -1.3759 O   0  0  0  0  0  0  0  0  0  0  0  0
   18.4000   72.8436   -2.3519 O   0  0  0  0  0  0  0  0  0  0  0  0
   20.6924   73.3807   -2.6229 O   0  0  0  0  0  0  0  0  0  0  0  0
   20.8514   69.3484   -3.4985 O   0  0  0  0  0  0  0  0  0  0  0  0
   21.9210   70.3022   -1.0097 O   0  0  0  0  0  0  0  0  0  0  0  0
   18.6026   70.9338   -4.3981 O   0  0  0  0  0  0  0  0  0  0  0  0
   20.3781   70.5177   -2.8246 C   0  0  1  0  0  0  0  0  0  0  0  0
   21.5573   71.1579   -2.0894 C   0  0  1  0  0  0  0  0  0  0  0  0
   19.7964   71.4856   -3.8532 C   0  0  2  0  0  0  0  0  0  0  0  0
   21.1920   72.5533   -1.5657 C   0  0  1  0  0  0  0  0  0  0  0  0
   19.5143   72.8586   -3.2405 C   0  0  1  0  0  0  0  0  0  0  0  0
   21.2216   68.7295   -2.8510 H   0  0  0  0  0  0  0  0  0  0  0  0
   22.1489   69.4242   -1.3539 H   0  0  0  0  0  0  0  0  0  0  0  0
   18.7945   70.0650   -4.7831 H   0  0  0  0  0  0  0  0  0  0  0  0
   22.5883   72.8097    0.3562 O   0  0  0  0  0  0  0  0  0  0  0  0
   22.3985   73.2737   -0.9678 C   0  0  0  0  0  0  0  0  0  0  0  0
   23.3531   73.2593    0.7493 H   0  0  0  0  0  0  0  0  0  0  0  0
 25 28  1  0
 25 24  1  0
 25 26  1  1
 25 27  2  0
  1  4  1  0
  1 24  1  0
  1  2  1  1
  1  3  2  0
  6 11  1  0
  6 12  1  0
 29 36  1  0
 29 37  1  0
  9  7  1  1
  7 13  1  0
 10  8  1  6
  8 14  1  0
 37 28  1  1
  4  5  1  0
 33 30  1  6
 30 38  1  0
 34 31  1  1
 31 39  1  0
 35 32  1  1
 32 40  1  0
 41 42  1  0
 41 43  1  0
 15 19  2  0
 16 22  2  0
 12 17  1  1
 17 19  1  0
 17 20  1  0
 18 19  1  0
 18 22  1  0
 18 23  1  0
  9 10  1  0
  9 11  1  0
 10 12  1  0
 11  5  1  1
 33 34  1  0
 33 35  1  0
 34 36  1  0
 35 37  1  0
 36 42  1  6
 20 21  2  0
 21 22  1  0
M  CHG  2   2  -1  26  -1
M  END
>  <COMPND>  (76) 
    8629 

>  <AUTHOR>  (76) 
    GENERATED BY OPEN BABEL 3.1.1

>  <MASTER>  (76) 
        0    0    0    0    0    0    0    0   58    0   58    0

>  <minimizedAffinity>  (76) 
-7.45049

>  <CNNscore>  (76) 
0.4107185602

>  <CNNaffinity>  (76) 
3.9289641380

>  <CNN_VS>  (76) 
1.6136984825

>  <CNNaffinity_variance>  (76) 
0.9712335467

$$$$
77
     RDKit          3D

 43 45  0  0  0  0  0  0  0  0999 V2000
   17.2582   74.4573   -3.5184 P   0  0  2  0  0  0  0  0  0  0  0  0
   16.0402   74.6469   -4.5662 O   0  0  0  0  0  0  0  0  0  0  0  0
   16.9595   74.8925   -2.1138 O   0  0  0  0  0  0  0  0  0  0  0  0
   18.5052   75.1997   -4.2338 O   0  0  0  0  0  0  0  0  0  0  0  0
   18.5860   75.1743   -5.6482 C   0  0  0  0  0  0  0  0  0  0  0  0
   20.9007   75.3149   -5.0187 O   0  0  0  0  0  0  0  0  0  0  0  0
   21.4698   75.7767   -7.9262 O   0  0  0  0  0  0  0  0  0  0  0  0
   22.1051   73.1440   -7.6070 O   0  0  0  0  0  0  0  0  0  0  0  0
   20.4879   74.9369   -7.3214 C   0  0  1  0  0  0  0  0  0  0  0  0
   21.1404   73.7011   -6.7377 C   0  0  2  0  0  0  0  0  0  0  0  0
   19.9707   75.6428   -6.0741 C   0  0  1  0  0  0  0  0  0  0  0  0
   21.7514   74.2428   -5.4565 C   0  0  2  0  0  0  0  0  0  0  0  0
   21.8147   75.3471   -8.7252 H   0  0  0  0  0  0  0  0  0  0  0  0
   21.6672   72.8136   -8.4070 H   0  0  0  0  0  0  0  0  0  0  0  0
   23.9804   73.8559   -3.7654 O   0  0  0  0  0  0  0  0  0  0  0  0
   21.9090   70.4050   -1.5200 O   0  0  0  0  0  0  0  0  0  0  0  0
   21.8215   73.2506   -4.4211 N   0  0  0  0  0  0  0  0  0  0  0  0
   22.9471   72.1381   -2.6486 N   0  0  0  0  0  0  0  0  0  0  0  0
   22.9874   73.1383   -3.6283 C   0  0  0  0  0  0  0  0  0  0  0  0
   20.7420   72.4023   -4.1999 C   0  0  0  0  0  0  0  0  0  0  0  0
   20.7199   71.4527   -3.2624 C   0  0  0  0  0  0  0  0  0  0  0  0
   21.8985   71.2693   -2.3910 C   0  0  0  0  0  0  0  0  0  0  0  0
   23.7485   72.0411   -2.0845 H   0  0  0  0  0  0  0  0  0  0  0  0
   17.6301   72.8918   -3.6729 O   0  0  0  0  0  0  0  0  0  0  0  0
   16.6908   71.5770   -3.7188 P   0  0  2  0  0  0  0  0  0  0  0  0
   15.2050   72.1743   -3.4881 O   0  0  0  0  0  0  0  0  0  0  0  0
   17.0852   70.5046   -2.7451 O   0  0  0  0  0  0  0  0  0  0  0  0
   16.7091   71.1158   -5.2654 O   0  0  0  0  0  0  0  0  0  0  0  0
   17.7411   72.1486   -7.1322 O   0  0  0  0  0  0  0  0  0  0  0  0
   14.3529   70.6803   -8.9801 O   0  0  0  0  0  0  0  0  0  0  0  0
   16.8940   69.4419   -9.4870 O   0  0  0  0  0  0  0  0  0  0  0  0
   14.1823   71.7627   -6.3007 O   0  0  0  0  0  0  0  0  0  0  0  0
   15.4346   70.6710   -8.0446 C   0  0  1  0  0  0  0  0  0  0  0  0
   16.7476   70.6975   -8.8295 C   0  0  1  0  0  0  0  0  0  0  0  0
   15.3236   71.8974   -7.1408 C   0  0  2  0  0  0  0  0  0  0  0  0
   17.9423   70.9575   -7.9020 C   0  0  1  0  0  0  0  0  0  0  0  0
   16.5838   72.0924   -6.2959 C   0  0  1  0  0  0  0  0  0  0  0  0
   14.4172   69.9038   -9.5567 H   0  0  0  0  0  0  0  0  0  0  0  0
   16.1330   69.2897  -10.0691 H   0  0  0  0  0  0  0  0  0  0  0  0
   13.3911   71.6403   -6.8475 H   0  0  0  0  0  0  0  0  0  0  0  0
   19.8537   69.8787   -8.8462 O   0  0  0  0  0  0  0  0  0  0  0  0
   19.2418   71.1447   -8.6820 C   0  0  0  0  0  0  0  0  0  0  0  0
   20.6819   69.9823   -9.3413 H   0  0  0  0  0  0  0  0  0  0  0  0
 25 28  1  0
 25 24  1  0
 25 26  1  1
 25 27  2  0
  1  4  1  0
  1 24  1  0
  1  2  1  6
  1  3  2  0
  6 11  1  0
  6 12  1  0
 29 36  1  0
 29 37  1  0
  9  7  1  1
  7 13  1  0
 10  8  1  6
  8 14  1  0
 37 28  1  1
  4  5  1  0
 33 30  1  6
 30 38  1  0
 34 31  1  1
 31 39  1  0
 35 32  1  1
 32 40  1  0
 41 42  1  0
 41 43  1  0
 15 19  2  0
 16 22  2  0
 12 17  1  1
 17 19  1  0
 17 20  1  0
 18 19  1  0
 18 22  1  0
 18 23  1  0
  9 10  1  0
  9 11  1  0
 10 12  1  0
 11  5  1  1
 33 34  1  0
 33 35  1  0
 34 36  1  0
 35 37  1  0
 36 42  1  6
 20 21  2  0
 21 22  1  0
M  CHG  2   2  -1  26  -1
M  END
>  <COMPND>  (77) 
    8629 

>  <AUTHOR>  (77) 
    GENERATED BY OPEN BABEL 3.1.1

>  <MASTER>  (77) 
        0    0    0    0    0    0    0    0   58    0   58    0

>  <minimizedAffinity>  (77) 
-6.91038

>  <CNNscore>  (77) 
0.4044926763

>  <CNNaffinity>  (77) 
3.8824756145

>  <CNN_VS>  (77) 
1.5704329014

>  <CNNaffinity_variance>  (77) 
0.8350049257

$$$$
78
     RDKit          3D

 43 45  0  0  0  0  0  0  0  0999 V2000
   20.9456   73.4958   -6.3692 P   0  0  2  0  0  0  0  0  0  0  0  0
   20.1244   74.8796   -6.5374 O   0  0  0  0  0  0  0  0  0  0  0  0
   22.2935   73.4747   -7.0281 O   0  0  0  0  0  0  0  0  0  0  0  0
   19.9029   72.3626   -6.8657 O   0  0  0  0  0  0  0  0  0  0  0  0
   19.2728   72.5283   -8.1239 C   0  0  0  0  0  0  0  0  0  0  0  0
   18.7029   70.2678   -7.5414 O   0  0  0  0  0  0  0  0  0  0  0  0
   17.5255   70.0543  -10.2907 O   0  0  0  0  0  0  0  0  0  0  0  0
   15.3229   70.4364   -8.7289 O   0  0  0  0  0  0  0  0  0  0  0  0
   17.5419   71.1689   -9.4004 C   0  0  1  0  0  0  0  0  0  0  0  0
   16.5554   70.9547   -8.2715 C   0  0  2  0  0  0  0  0  0  0  0  0
   18.8753   71.1611   -8.6633 C   0  0  1  0  0  0  0  0  0  0  0  0
   17.3045   69.9797   -7.3791 C   0  0  2  0  0  0  0  0  0  0  0  0
   16.6835   70.0384  -10.7731 H   0  0  0  0  0  0  0  0  0  0  0  0
   14.8848   71.0934   -9.2921 H   0  0  0  0  0  0  0  0  0  0  0  0
   16.3876   67.8752   -5.7333 O   0  0  0  0  0  0  0  0  0  0  0  0
   15.9953   70.6581   -2.0805 O   0  0  0  0  0  0  0  0  0  0  0  0
   16.9559   70.1261   -5.9940 N   0  0  0  0  0  0  0  0  0  0  0  0
   16.1932   69.2626   -3.9158 N   0  0  0  0  0  0  0  0  0  0  0  0
   16.5051   69.0062   -5.2571 C   0  0  0  0  0  0  0  0  0  0  0  0
   17.0627   71.3693   -5.3802 C   0  0  0  0  0  0  0  0  0  0  0  0
   16.7601   71.5974   -4.1005 C   0  0  0  0  0  0  0  0  0  0  0  0
   16.2817   70.4805   -3.2605 C   0  0  0  0  0  0  0  0  0  0  0  0
   15.8767   68.4973   -3.3829 H   0  0  0  0  0  0  0  0  0  0  0  0
   20.9767   73.2840   -4.7669 O   0  0  0  0  0  0  0  0  0  0  0  0
   22.2051   72.9875   -3.7590 P   0  0  2  0  0  0  0  0  0  0  0  0
   23.4573   73.7207   -4.4744 O   0  0  0  0  0  0  0  0  0  0  0  0
   22.4242   71.5311   -3.4677 O   0  0  0  0  0  0  0  0  0  0  0  0
   21.8931   73.8903   -2.4580 O   0  0  0  0  0  0  0  0  0  0  0  0
   23.1947   75.3938   -1.1689 O   0  0  0  0  0  0  0  0  0  0  0  0
   21.2127   73.4492    1.8874 O   0  0  0  0  0  0  0  0  0  0  0  0
   20.5005   76.1526    1.2299 O   0  0  0  0  0  0  0  0  0  0  0  0
   22.1063   71.9623   -0.4300 O   0  0  0  0  0  0  0  0  0  0  0  0
   21.3590   74.0160    0.5825 C   0  0  1  0  0  0  0  0  0  0  0  0
   21.6712   75.5056    0.7390 C   0  0  1  0  0  0  0  0  0  0  0  0
   22.4952   73.3022   -0.1473 C   0  0  2  0  0  0  0  0  0  0  0  0
   22.1033   76.1244   -0.5973 C   0  0  1  0  0  0  0  0  0  0  0  0
   22.8799   74.0263   -1.4387 C   0  0  1  0  0  0  0  0  0  0  0  0
   20.4925   73.8977    2.3560 H   0  0  0  0  0  0  0  0  0  0  0  0
   20.2380   75.7522    2.0737 H   0  0  0  0  0  0  0  0  0  0  0  0
   21.8655   71.5147    0.3955 H   0  0  0  0  0  0  0  0  0  0  0  0
   21.4381   78.4169   -0.4936 O   0  0  0  0  0  0  0  0  0  0  0  0
   22.5704   77.5691   -0.4341 C   0  0  0  0  0  0  0  0  0  0  0  0
   21.7202   79.3397   -0.3909 H   0  0  0  0  0  0  0  0  0  0  0  0
 25 28  1  0
 25 24  1  0
 25 26  1  6
 25 27  2  0
  1  4  1  0
  1 24  1  0
  1  2  1  1
  1  3  2  0
  6 11  1  0
  6 12  1  0
 29 36  1  0
 29 37  1  0
  9  7  1  6
  7 13  1  0
 10  8  1  6
  8 14  1  0
 37 28  1  6
  4  5  1  0
 33 30  1  1
 30 38  1  0
 34 31  1  6
 31 39  1  0
 35 32  1  6
 32 40  1  0
 41 42  1  0
 41 43  1  0
 15 19  2  0
 16 22  2  0
 12 17  1  1
 17 19  1  0
 17 20  1  0
 18 19  1  0
 18 22  1  0
 18 23  1  0
  9 10  1  0
  9 11  1  0
 10 12  1  0
 11  5  1  1
 33 34  1  0
 33 35  1  0
 34 36  1  0
 35 37  1  0
 36 42  1  1
 20 21  2  0
 21 22  1  0
M  CHG  2   2  -1  26  -1
M  END
>  <COMPND>  (78) 
    8629 

>  <AUTHOR>  (78) 
    GENERATED BY OPEN BABEL 3.1.1

>  <MASTER>  (78) 
        0    0    0    0    0    0    0    0   58    0   58    0

>  <minimizedAffinity>  (78) 
-7.53774

>  <CNNscore>  (78) 
0.4010103047

>  <CNNaffinity>  (78) 
4.1489324570

>  <CNN_VS>  (78) 
1.6637647152

>  <CNNaffinity_variance>  (78) 
0.2265079319

$$$$
79
     RDKit          3D

 43 45  0  0  0  0  0  0  0  0999 V2000
   18.9661   69.9565   -3.2791 P   0  0  2  0  0  0  0  0  0  0  0  0
   18.1149   68.8027   -2.5296 O   0  0  0  0  0  0  0  0  0  0  0  0
   19.2125   69.7148   -4.7393 O   0  0  0  0  0  0  0  0  0  0  0  0
   20.2883   70.1218   -2.3613 O   0  0  0  0  0  0  0  0  0  0  0  0
   21.5144   70.4446   -2.9940 C   0  0  0  0  0  0  0  0  0  0  0  0
   23.0721   72.2708   -2.8833 O   0  0  0  0  0  0  0  0  0  0  0  0
   22.2656   72.5391   -0.0078 O   0  0  0  0  0  0  0  0  0  0  0  0
   20.8480   74.5337   -1.2113 O   0  0  0  0  0  0  0  0  0  0  0  0
   21.4710   72.1847   -1.1384 C   0  0  1  0  0  0  0  0  0  0  0  0
   21.1935   73.4061   -1.9897 C   0  0  2  0  0  0  0  0  0  0  0  0
   22.3300   71.3372   -2.0685 C   0  0  1  0  0  0  0  0  0  0  0  0
   22.5114   73.5843   -2.7242 C   0  0  2  0  0  0  0  0  0  0  0  0
   21.7382   73.0806    0.6010 H   0  0  0  0  0  0  0  0  0  0  0  0
   20.0028   74.3715   -0.7642 H   0  0  0  0  0  0  0  0  0  0  0  0
   23.9412   75.8382   -3.6479 O   0  0  0  0  0  0  0  0  0  0  0  0
   21.7709   75.7775   -7.7133 O   0  0  0  0  0  0  0  0  0  0  0  0
   22.3402   74.1783   -4.0201 N   0  0  0  0  0  0  0  0  0  0  0  0
   22.8595   75.8060   -5.6715 N   0  0  0  0  0  0  0  0  0  0  0  0
   23.1072   75.3091   -4.3855 C   0  0  0  0  0  0  0  0  0  0  0  0
   21.4205   73.6396   -4.9133 C   0  0  0  0  0  0  0  0  0  0  0  0
   21.1953   74.1262   -6.1355 C   0  0  0  0  0  0  0  0  0  0  0  0
   21.9551   75.3065   -6.5952 C   0  0  0  0  0  0  0  0  0  0  0  0
   23.3819   76.5938   -5.9477 H   0  0  0  0  0  0  0  0  0  0  0  0
   18.1264   71.2983   -2.9516 O   0  0  0  0  0  0  0  0  0  0  0  0
   16.5353   71.5834   -2.9598 P   0  0  2  0  0  0  0  0  0  0  0  0
   16.4441   73.1843   -2.7446 O   0  0  0  0  0  0  0  0  0  0  0  0
   15.7607   70.7786   -1.9567 O   0  0  0  0  0  0  0  0  0  0  0  0
   16.0867   71.3521   -4.4929 O   0  0  0  0  0  0  0  0  0  0  0  0
   17.3366   71.4781   -6.5025 O   0  0  0  0  0  0  0  0  0  0  0  0
   13.7697   73.0694   -7.8429 O   0  0  0  0  0  0  0  0  0  0  0  0
   14.5431   70.4291   -8.6670 O   0  0  0  0  0  0  0  0  0  0  0  0
   14.7278   73.7072   -5.1868 O   0  0  0  0  0  0  0  0  0  0  0  0
   14.5987   72.2029   -7.0634 C   0  0  1  0  0  0  0  0  0  0  0  0
   15.4257   71.3419   -8.0202 C   0  0  1  0  0  0  0  0  0  0  0  0
   15.5107   73.0490   -6.1769 C   0  0  2  0  0  0  0  0  0  0  0  0
   16.5260   70.5799   -7.2693 C   0  0  1  0  0  0  0  0  0  0  0  0
   16.5994   72.2022   -5.5155 C   0  0  1  0  0  0  0  0  0  0  0  0
   13.1879   72.5384   -8.4077 H   0  0  0  0  0  0  0  0  0  0  0  0
   13.8529   70.9230   -9.1370 H   0  0  0  0  0  0  0  0  0  0  0  0
   14.0425   74.2402   -5.6182 H   0  0  0  0  0  0  0  0  0  0  0  0
   18.7686   69.8657   -7.6808 O   0  0  0  0  0  0  0  0  0  0  0  0
   17.4609   69.8387   -8.2225 C   0  0  0  0  0  0  0  0  0  0  0  0
   19.3745   69.3972   -8.2768 H   0  0  0  0  0  0  0  0  0  0  0  0
 25 28  1  0
 25 24  1  0
 25 26  1  1
 25 27  2  0
  1  4  1  0
  1 24  1  0
  1  2  1  1
  1  3  2  0
  6 11  1  0
  6 12  1  0
 29 36  1  0
 29 37  1  0
  9  7  1  1
  7 13  1  0
 10  8  1  1
  8 14  1  0
 37 28  1  1
  4  5  1  0
 33 30  1  6
 30 38  1  0
 34 31  1  1
 31 39  1  0
 35 32  1  1
 32 40  1  0
 41 42  1  0
 41 43  1  0
 15 19  2  0
 16 22  2  0
 12 17  1  6
 17 19  1  0
 17 20  1  0
 18 19  1  0
 18 22  1  0
 18 23  1  0
  9 10  1  0
  9 11  1  0
 10 12  1  0
 11  5  1  6
 33 34  1  0
 33 35  1  0
 34 36  1  0
 35 37  1  0
 36 42  1  6
 20 21  2  0
 21 22  1  0
M  CHG  2   2  -1  26  -1
M  END
>  <COMPND>  (79) 
    8629 

>  <AUTHOR>  (79) 
    GENERATED BY OPEN BABEL 3.1.1

>  <MASTER>  (79) 
        0    0    0    0    0    0    0    0   58    0   58    0

>  <minimizedAffinity>  (79) 
-6.79387

>  <CNNscore>  (79) 
0.4002186060

>  <CNNaffinity>  (79) 
3.9333539009

>  <CNN_VS>  (79) 
1.5742014647

>  <CNNaffinity_variance>  (79) 
0.5709400177

$$$$
80
     RDKit          3D

 43 45  0  0  0  0  0  0  0  0999 V2000
   22.2531   73.4864   -3.7616 P   0  0  2  0  0  0  0  0  0  0  0  0
   21.3843   74.8398   -3.5859 O   0  0  0  0  0  0  0  0  0  0  0  0
   23.4563   73.6164   -4.6486 O   0  0  0  0  0  0  0  0  0  0  0  0
   21.1623   72.3807   -4.2148 O   0  0  0  0  0  0  0  0  0  0  0  0
   20.1317   72.7727   -5.1048 C   0  0  0  0  0  0  0  0  0  0  0  0
   17.7707   72.4715   -5.4342 O   0  0  0  0  0  0  0  0  0  0  0  0
   17.6871   71.5089   -2.5957 O   0  0  0  0  0  0  0  0  0  0  0  0
   17.6311   69.1808   -4.0148 O   0  0  0  0  0  0  0  0  0  0  0  0
   18.7002   71.3213   -3.5826 C   0  0  1  0  0  0  0  0  0  0  0  0
   18.2517   70.3024   -4.6094 C   0  0  2  0  0  0  0  0  0  0  0  0
   18.7863   72.5947   -4.4146 C   0  0  1  0  0  0  0  0  0  0  0  0
   17.2942   71.1161   -5.4633 C   0  0  2  0  0  0  0  0  0  0  0  0
   17.6139   70.7085   -2.0516 H   0  0  0  0  0  0  0  0  0  0  0  0
   18.2808   68.6961   -3.4823 H   0  0  0  0  0  0  0  0  0  0  0  0
   15.0156   71.2527   -7.1268 O   0  0  0  0  0  0  0  0  0  0  0  0
   17.2641   69.3515  -10.6724 O   0  0  0  0  0  0  0  0  0  0  0  0
   17.2562   70.6644   -6.8256 N   0  0  0  0  0  0  0  0  0  0  0  0
   16.1371   70.3061   -8.8909 N   0  0  0  0  0  0  0  0  0  0  0  0
   16.0613   70.7771   -7.5739 C   0  0  0  0  0  0  0  0  0  0  0  0
   18.3952   70.1171   -7.4063 C   0  0  0  0  0  0  0  0  0  0  0  0
   18.4506   69.6715   -8.6631 C   0  0  0  0  0  0  0  0  0  0  0  0
   17.2451   69.7529   -9.5129 C   0  0  0  0  0  0  0  0  0  0  0  0
   15.3165   70.3741   -9.4312 H   0  0  0  0  0  0  0  0  0  0  0  0
   22.5841   73.0664   -2.2362 O   0  0  0  0  0  0  0  0  0  0  0  0
   21.6322   72.4909   -1.0632 P   0  0  2  0  0  0  0  0  0  0  0  0
   21.8452   70.8903   -1.1644 O   0  0  0  0  0  0  0  0  0  0  0  0
   20.2006   72.9325   -1.1603 O   0  0  0  0  0  0  0  0  0  0  0  0
   22.3714   72.9147    0.3075 O   0  0  0  0  0  0  0  0  0  0  0  0
   21.6564   75.1651    0.5100 O   0  0  0  0  0  0  0  0  0  0  0  0
   23.5315   74.7373    4.1640 O   0  0  0  0  0  0  0  0  0  0  0  0
   20.6644   74.8545    4.0467 O   0  0  0  0  0  0  0  0  0  0  0  0
   24.6702   73.5073    1.8039 O   0  0  0  0  0  0  0  0  0  0  0  0
   22.7628   74.3104    3.0361 C   0  0  1  0  0  0  0  0  0  0  0  0
   21.5111   75.1859    2.9496 C   0  0  1  0  0  0  0  0  0  0  0  0
   23.6084   74.4549    1.7721 C   0  0  2  0  0  0  0  0  0  0  0  0
   20.7741   74.9691    1.6212 C   0  0  1  0  0  0  0  0  0  0  0  0
   22.7692   74.2687    0.5068 C   0  0  1  0  0  0  0  0  0  0  0  0
   23.0006   74.6475    4.9699 H   0  0  0  0  0  0  0  0  0  0  0  0
   21.1419   74.9953    4.8793 H   0  0  0  0  0  0  0  0  0  0  0  0
   25.1942   73.6358    2.6094 H   0  0  0  0  0  0  0  0  0  0  0  0
   19.5465   76.3248    0.0837 O   0  0  0  0  0  0  0  0  0  0  0  0
   19.6124   75.9447    1.4458 C   0  0  0  0  0  0  0  0  0  0  0  0
   18.8113   76.9455   -0.0430 H   0  0  0  0  0  0  0  0  0  0  0  0
 25 28  1  0
 25 24  1  0
 25 26  1  6
 25 27  2  0
  1  4  1  0
  1 24  1  0
  1  2  1  1
  1  3  2  0
  6 11  1  0
  6 12  1  0
 29 36  1  0
 29 37  1  0
  9  7  1  1
  7 13  1  0
 10  8  1  1
  8 14  1  0
 37 28  1  1
  4  5  1  0
 33 30  1  1
 30 38  1  0
 34 31  1  1
 31 39  1  0
 35 32  1  1
 32 40  1  0
 41 42  1  0
 41 43  1  0
 15 19  2  0
 16 22  2  0
 12 17  1  6
 17 19  1  0
 17 20  1  0
 18 19  1  0
 18 22  1  0
 18 23  1  0
  9 10  1  0
  9 11  1  0
 10 12  1  0
 11  5  1  6
 33 34  1  0
 33 35  1  0
 34 36  1  0
 35 37  1  0
 36 42  1  6
 20 21  2  0
 21 22  1  0
M  CHG  2   2  -1  26  -1
M  END
>  <COMPND>  (80) 
    8629 

>  <AUTHOR>  (80) 
    GENERATED BY OPEN BABEL 3.1.1

>  <MASTER>  (80) 
        0    0    0    0    0    0    0    0   58    0   58    0

>  <minimizedAffinity>  (80) 
-7.25759

>  <CNNscore>  (80) 
0.3759852648

>  <CNNaffinity>  (80) 
4.0974555016

>  <CNN_VS>  (80) 
1.5405828953

>  <CNNaffinity_variance>  (80) 
0.0378811955

$$$$
81
     RDKit          3D

 43 45  0  0  0  0  0  0  0  0999 V2000
   20.4983   70.9656   -2.5992 P   0  0  2  0  0  0  0  0  0  0  0  0
   20.6837   69.4509   -3.1365 O   0  0  0  0  0  0  0  0  0  0  0  0
   21.1806   71.2639   -1.2965 O   0  0  0  0  0  0  0  0  0  0  0  0
   18.8964   71.1922   -2.6214 O   0  0  0  0  0  0  0  0  0  0  0  0
   18.3048   71.7220   -3.7949 C   0  0  0  0  0  0  0  0  0  0  0  0
   16.3424   71.5249   -5.1675 O   0  0  0  0  0  0  0  0  0  0  0  0
   15.2326   69.7720   -3.0026 O   0  0  0  0  0  0  0  0  0  0  0  0
   16.0566   67.9623   -4.8689 O   0  0  0  0  0  0  0  0  0  0  0  0
   16.5747   69.8845   -3.4731 C   0  0  1  0  0  0  0  0  0  0  0  0
   16.7174   69.2105   -4.8218 C   0  0  2  0  0  0  0  0  0  0  0  0
   16.8295   71.3462   -3.8195 C   0  0  1  0  0  0  0  0  0  0  0  0
   16.0959   70.2365   -5.7541 C   0  0  2  0  0  0  0  0  0  0  0  0
   15.0465   68.8471   -2.7748 H   0  0  0  0  0  0  0  0  0  0  0  0
   16.4889   67.3443   -4.2590 H   0  0  0  0  0  0  0  0  0  0  0  0
   14.6174   70.4225   -8.1535 O   0  0  0  0  0  0  0  0  0  0  0  0
   18.4205   70.0992  -10.7368 O   0  0  0  0  0  0  0  0  0  0  0  0
   16.6742   70.2041   -7.0678 N   0  0  0  0  0  0  0  0  0  0  0  0
   16.5123   70.2615   -9.4378 N   0  0  0  0  0  0  0  0  0  0  0  0
   15.8432   70.3038   -8.2080 C   0  0  0  0  0  0  0  0  0  0  0  0
   18.0509   70.0748   -7.2160 C   0  0  0  0  0  0  0  0  0  0  0  0
   18.6733   70.0348   -8.3959 C   0  0  0  0  0  0  0  0  0  0  0  0
   17.8778   70.1329   -9.6367 C   0  0  0  0  0  0  0  0  0  0  0  0
   15.9536   70.3289  -10.2460 H   0  0  0  0  0  0  0  0  0  0  0  0
   21.0089   71.8586   -3.8461 O   0  0  0  0  0  0  0  0  0  0  0  0
   21.5958   73.3637   -3.9040 P   0  0  2  0  0  0  0  0  0  0  0  0
   23.0448   73.1705   -4.5972 O   0  0  0  0  0  0  0  0  0  0  0  0
   21.6331   74.0612   -2.5751 O   0  0  0  0  0  0  0  0  0  0  0  0
   20.7035   74.1072   -5.0248 O   0  0  0  0  0  0  0  0  0  0  0  0
   19.6500   73.3121   -6.9932 O   0  0  0  0  0  0  0  0  0  0  0  0
   20.9874   76.9611   -8.3885 O   0  0  0  0  0  0  0  0  0  0  0  0
   18.1850   76.5724   -7.8949 O   0  0  0  0  0  0  0  0  0  0  0  0
   22.6378   75.4123   -6.5838 O   0  0  0  0  0  0  0  0  0  0  0  0
   20.4693   76.0479   -7.4174 C   0  0  1  0  0  0  0  0  0  0  0  0
   19.1327   75.5090   -7.9311 C   0  0  1  0  0  0  0  0  0  0  0  0
   21.4681   74.9091   -7.2203 C   0  0  2  0  0  0  0  0  0  0  0  0
   18.6459   74.3301   -7.0776 C   0  0  1  0  0  0  0  0  0  0  0  0
   20.8674   73.7668   -6.3991 C   0  0  1  0  0  0  0  0  0  0  0  0
   20.3582   77.6869   -8.5180 H   0  0  0  0  0  0  0  0  0  0  0  0
   18.5046   77.3106   -8.4373 H   0  0  0  0  0  0  0  0  0  0  0  0
   23.0087   76.1346   -7.1135 H   0  0  0  0  0  0  0  0  0  0  0  0
   16.3243   73.8637   -6.7588 O   0  0  0  0  0  0  0  0  0  0  0  0
   17.3964   73.6768   -7.6642 C   0  0  0  0  0  0  0  0  0  0  0  0
   15.5222   73.4532   -7.1192 H   0  0  0  0  0  0  0  0  0  0  0  0
 25 28  1  0
 25 24  1  0
 25 26  1  6
 25 27  2  0
  1  4  1  0
  1 24  1  0
  1  2  1  6
  1  3  2  0
  6 11  1  0
  6 12  1  0
 29 36  1  0
 29 37  1  0
  9  7  1  6
  7 13  1  0
 10  8  1  1
  8 14  1  0
 37 28  1  1
  4  5  1  0
 33 30  1  6
 30 38  1  0
 34 31  1  1
 31 39  1  0
 35 32  1  1
 32 40  1  0
 41 42  1  0
 41 43  1  0
 15 19  2  0
 16 22  2  0
 12 17  1  6
 17 19  1  0
 17 20  1  0
 18 19  1  0
 18 22  1  0
 18 23  1  0
  9 10  1  0
  9 11  1  0
 10 12  1  0
 11  5  1  6
 33 34  1  0
 33 35  1  0
 34 36  1  0
 35 37  1  0
 36 42  1  6
 20 21  2  0
 21 22  1  0
M  CHG  2   2  -1  26  -1
M  END
>  <COMPND>  (81) 
    8629 

>  <AUTHOR>  (81) 
    GENERATED BY OPEN BABEL 3.1.1

>  <MASTER>  (81) 
        0    0    0    0    0    0    0    0   58    0   58    0

>  <minimizedAffinity>  (81) 
-7.21890

>  <CNNscore>  (81) 
0.6260996461

>  <CNNaffinity>  (81) 
4.2491340637

>  <CNN_VS>  (81) 
2.6603813171

>  <CNNaffinity_variance>  (81) 
0.5757547021

$$$$
82
     RDKit          3D

 43 45  0  0  0  0  0  0  0  0999 V2000
   19.2962   73.4382   -7.4522 P   0  0  2  0  0  0  0  0  0  0  0  0
   18.9500   74.8791   -8.1012 O   0  0  0  0  0  0  0  0  0  0  0  0
   20.6620   73.3304   -6.8401 O   0  0  0  0  0  0  0  0  0  0  0  0
   18.9745   72.3892   -8.6413 O   0  0  0  0  0  0  0  0  0  0  0  0
   19.8189   71.2618   -8.7952 C   0  0  0  0  0  0  0  0  0  0  0  0
   18.7812   69.1961   -8.1396 O   0  0  0  0  0  0  0  0  0  0  0  0
   17.1257   69.4554  -10.6261 O   0  0  0  0  0  0  0  0  0  0  0  0
   15.4131   70.3033   -8.6807 O   0  0  0  0  0  0  0  0  0  0  0  0
   17.5933   70.4739   -9.7433 C   0  0  1  0  0  0  0  0  0  0  0  0
   16.7993   70.4571   -8.4537 C   0  0  2  0  0  0  0  0  0  0  0  0
   18.9847   70.0780   -9.2653 C   0  0  1  0  0  0  0  0  0  0  0  0
   17.4075   69.2711   -7.7247 C   0  0  2  0  0  0  0  0  0  0  0  0
   16.2385   69.6863  -10.9448 H   0  0  0  0  0  0  0  0  0  0  0  0
   15.0732   71.0830   -9.1468 H   0  0  0  0  0  0  0  0  0  0  0  0
   15.1309   68.7377   -6.1402 O   0  0  0  0  0  0  0  0  0  0  0  0
   17.3363   69.8860   -2.2597 O   0  0  0  0  0  0  0  0  0  0  0  0
   17.3589   69.4218   -6.2977 N   0  0  0  0  0  0  0  0  0  0  0  0
   16.2309   69.3097   -4.2093 N   0  0  0  0  0  0  0  0  0  0  0  0
   16.1661   69.1283   -5.5967 C   0  0  0  0  0  0  0  0  0  0  0  0
   18.4858   69.8558   -5.6079 C   0  0  0  0  0  0  0  0  0  0  0  0
   18.5309   70.0249   -4.2848 C   0  0  0  0  0  0  0  0  0  0  0  0
   17.3267   69.7402   -3.4781 C   0  0  0  0  0  0  0  0  0  0  0  0
   15.4115   69.1118   -3.7001 H   0  0  0  0  0  0  0  0  0  0  0  0
   18.0755   73.2020   -6.4192 O   0  0  0  0  0  0  0  0  0  0  0  0
   16.5176   73.6251   -6.5024 P   0  0  2  0  0  0  0  0  0  0  0  0
   16.4785   75.0495   -5.7363 O   0  0  0  0  0  0  0  0  0  0  0  0
   15.5710   72.5989   -5.9503 O   0  0  0  0  0  0  0  0  0  0  0  0
   16.2760   73.9908   -8.0557 O   0  0  0  0  0  0  0  0  0  0  0  0
   15.3053   76.0770   -8.6233 O   0  0  0  0  0  0  0  0  0  0  0  0
   14.4930   74.0035  -12.1006 O   0  0  0  0  0  0  0  0  0  0  0  0
   16.5166   76.0415  -12.1047 O   0  0  0  0  0  0  0  0  0  0  0  0
   14.2999   72.6637   -9.5418 O   0  0  0  0  0  0  0  0  0  0  0  0
   15.2594   74.3668  -10.9490 C   0  0  1  0  0  0  0  0  0  0  0  0
   15.5859   75.8587  -11.0414 C   0  0  1  0  0  0  0  0  0  0  0  0
   14.4424   74.0720   -9.6924 C   0  0  2  0  0  0  0  0  0  0  0  0
   16.1723   76.3801   -9.7225 C   0  0  1  0  0  0  0  0  0  0  0  0
   15.0883   74.6761   -8.4442 C   0  0  1  0  0  0  0  0  0  0  0  0
   15.0063   74.1877  -12.9019 H   0  0  0  0  0  0  0  0  0  0  0  0
   16.1343   75.7077  -12.9316 H   0  0  0  0  0  0  0  0  0  0  0  0
   13.8896   72.2933  -10.3383 H   0  0  0  0  0  0  0  0  0  0  0  0
   15.0943   78.5017   -9.9364 O   0  0  0  0  0  0  0  0  0  0  0  0
   16.3585   77.8957   -9.7390 C   0  0  0  0  0  0  0  0  0  0  0  0
   15.1973   79.4665   -9.9488 H   0  0  0  0  0  0  0  0  0  0  0  0
 25 28  1  0
 25 24  1  0
 25 26  1  1
 25 27  2  0
  1  4  1  0
  1 24  1  0
  1  2  1  6
  1  3  2  0
  6 11  1  0
  6 12  1  0
 29 36  1  0
 29 37  1  0
  9  7  1  6
  7 13  1  0
 10  8  1  6
  8 14  1  0
 37 28  1  6
  4  5  1  0
 33 30  1  6
 30 38  1  0
 34 31  1  6
 31 39  1  0
 35 32  1  1
 32 40  1  0
 41 42  1  0
 41 43  1  0
 15 19  2  0
 16 22  2  0
 12 17  1  1
 17 19  1  0
 17 20  1  0
 18 19  1  0
 18 22  1  0
 18 23  1  0
  9 10  1  0
  9 11  1  0
 10 12  1  0
 11  5  1  1
 33 34  1  0
 33 35  1  0
 34 36  1  0
 35 37  1  0
 36 42  1  6
 20 21  2  0
 21 22  1  0
M  CHG  2   2  -1  26  -1
M  END
>  <COMPND>  (82) 
    8629 

>  <AUTHOR>  (82) 
    GENERATED BY OPEN BABEL 3.1.1

>  <MASTER>  (82) 
        0    0    0    0    0    0    0    0   58    0   58    0

>  <minimizedAffinity>  (82) 
-7.08333

>  <CNNscore>  (82) 
0.4981051385

>  <CNNaffinity>  (82) 
4.0623207092

>  <CNN_VS>  (82) 
2.0234627724

>  <CNNaffinity_variance>  (82) 
0.3598856926

$$$$
83
     RDKit          3D

 43 45  0  0  0  0  0  0  0  0999 V2000
   21.1779   71.4736   -2.1174 P   0  0  2  0  0  0  0  0  0  0  0  0
   21.9574   72.3264   -3.2499 O   0  0  0  0  0  0  0  0  0  0  0  0
   21.5092   70.0105   -2.0859 O   0  0  0  0  0  0  0  0  0  0  0  0
   19.6201   71.8362   -2.3617 O   0  0  0  0  0  0  0  0  0  0  0  0
   19.0311   71.4869   -3.6021 C   0  0  0  0  0  0  0  0  0  0  0  0
   16.9488   71.8643   -4.7404 O   0  0  0  0  0  0  0  0  0  0  0  0
   15.6552   70.4001   -2.4659 O   0  0  0  0  0  0  0  0  0  0  0  0
   15.7528   68.4985   -4.4180 O   0  0  0  0  0  0  0  0  0  0  0  0
   16.9180   70.1667   -3.0873 C   0  0  1  0  0  0  0  0  0  0  0  0
   16.7251   69.5235   -4.4448 C   0  0  2  0  0  0  0  0  0  0  0  0
   17.5157   71.5183   -3.4577 C   0  0  1  0  0  0  0  0  0  0  0  0
   16.3028   70.7079   -5.2974 C   0  0  2  0  0  0  0  0  0  0  0  0
   15.2541   69.5512   -2.2200 H   0  0  0  0  0  0  0  0  0  0  0  0
   16.0679   67.7681   -3.8631 H   0  0  0  0  0  0  0  0  0  0  0  0
   14.5124   70.3560   -7.4535 O   0  0  0  0  0  0  0  0  0  0  0  0
   17.9505   70.1717  -10.5173 O   0  0  0  0  0  0  0  0  0  0  0  0
   16.7028   70.5657   -6.6690 N   0  0  0  0  0  0  0  0  0  0  0  0
   16.2257   70.2647   -8.9773 N   0  0  0  0  0  0  0  0  0  0  0  0
   15.7244   70.3928   -7.6756 C   0  0  0  0  0  0  0  0  0  0  0  0
   18.0520   70.5986   -7.0044 C   0  0  0  0  0  0  0  0  0  0  0  0
   18.5137   70.4737   -8.2503 C   0  0  0  0  0  0  0  0  0  0  0  0
   17.5573   70.2896   -9.3608 C   0  0  0  0  0  0  0  0  0  0  0  0
   15.5626   70.1429   -9.6950 H   0  0  0  0  0  0  0  0  0  0  0  0
   21.5277   72.2720   -0.7561 O   0  0  0  0  0  0  0  0  0  0  0  0
   22.0082   73.7962   -0.5130 P   0  0  2  0  0  0  0  0  0  0  0  0
   20.6597   74.6546   -0.7625 O   0  0  0  0  0  0  0  0  0  0  0  0
   23.1750   74.2160   -1.3594 O   0  0  0  0  0  0  0  0  0  0  0  0
   22.2657   73.8946    1.0772 O   0  0  0  0  0  0  0  0  0  0  0  0
   21.8639   76.0167    2.0528 O   0  0  0  0  0  0  0  0  0  0  0  0
   24.0186   74.2791    5.1170 O   0  0  0  0  0  0  0  0  0  0  0  0
   21.1916   74.6824    5.4228 O   0  0  0  0  0  0  0  0  0  0  0  0
   24.7563   73.7711    2.3643 O   0  0  0  0  0  0  0  0  0  0  0  0
   23.0955   74.3050    4.0250 C   0  0  1  0  0  0  0  0  0  0  0  0
   21.9620   75.2701    4.3780 C   0  0  1  0  0  0  0  0  0  0  0  0
   23.8247   74.7698    2.7658 C   0  0  2  0  0  0  0  0  0  0  0  0
   21.0770   75.5554    3.1572 C   0  0  1  0  0  0  0  0  0  0  0  0
   22.8489   75.0729    1.6273 C   0  0  1  0  0  0  0  0  0  0  0  0
   23.5620   73.9843    5.9195 H   0  0  0  0  0  0  0  0  0  0  0  0
   21.7623   74.5068    6.1874 H   0  0  0  0  0  0  0  0  0  0  0  0
   25.3686   73.5884    3.0934 H   0  0  0  0  0  0  0  0  0  0  0  0
   20.2599   77.1386    4.7493 O   0  0  0  0  0  0  0  0  0  0  0  0
   20.0362   76.6353    3.4451 C   0  0  0  0  0  0  0  0  0  0  0  0
   19.6050   77.8271    4.9463 H   0  0  0  0  0  0  0  0  0  0  0  0
 25 28  1  0
 25 24  1  0
 25 26  1  6
 25 27  2  0
  1  4  1  0
  1 24  1  0
  1  2  1  6
  1  3  2  0
  6 11  1  0
  6 12  1  0
 29 36  1  0
 29 37  1  0
  9  7  1  6
  7 13  1  0
 10  8  1  1
  8 14  1  0
 37 28  1  1
  4  5  1  0
 33 30  1  1
 30 38  1  0
 34 31  1  1
 31 39  1  0
 35 32  1  6
 32 40  1  0
 41 42  1  0
 41 43  1  0
 15 19  2  0
 16 22  2  0
 12 17  1  6
 17 19  1  0
 17 20  1  0
 18 19  1  0
 18 22  1  0
 18 23  1  0
  9 10  1  0
  9 11  1  0
 10 12  1  0
 11  5  1  6
 33 34  1  0
 33 35  1  0
 34 36  1  0
 35 37  1  0
 36 42  1  1
 20 21  2  0
 21 22  1  0
M  CHG  2   2  -1  26  -1
M  END
>  <COMPND>  (83) 
    8629 

>  <AUTHOR>  (83) 
    GENERATED BY OPEN BABEL 3.1.1

>  <MASTER>  (83) 
        0    0    0    0    0    0    0    0   58    0   58    0

>  <minimizedAffinity>  (83) 
-7.72315

>  <CNNscore>  (83) 
0.4936727285

>  <CNNaffinity>  (83) 
4.2531843185

>  <CNN_VS>  (83) 
2.0996811390

>  <CNNaffinity_variance>  (83) 
0.0521922000

$$$$
84
     RDKit          3D

 43 45  0  0  0  0  0  0  0  0999 V2000
   20.8040   73.7351   -7.1141 P   0  0  2  0  0  0  0  0  0  0  0  0
   20.4340   75.1729   -7.7569 O   0  0  0  0  0  0  0  0  0  0  0  0
   22.2649   73.5154   -6.8516 O   0  0  0  0  0  0  0  0  0  0  0  0
   20.1015   72.6716   -8.1108 O   0  0  0  0  0  0  0  0  0  0  0  0
   18.6908   72.5433   -8.0772 C   0  0  0  0  0  0  0  0  0  0  0  0
   18.1751   70.2866   -7.4331 O   0  0  0  0  0  0  0  0  0  0  0  0
   16.9426   69.9911  -10.1506 O   0  0  0  0  0  0  0  0  0  0  0  0
   14.7677   70.3685   -8.5493 O   0  0  0  0  0  0  0  0  0  0  0  0
   16.9579   71.1253   -9.2853 C   0  0  1  0  0  0  0  0  0  0  0  0
   16.0001   70.9187   -8.1306 C   0  0  2  0  0  0  0  0  0  0  0  0
   18.3069   71.1576   -8.5778 C   0  0  1  0  0  0  0  0  0  0  0  0
   16.7861   69.9772   -7.2339 C   0  0  2  0  0  0  0  0  0  0  0  0
   16.0908   69.9495  -10.6138 H   0  0  0  0  0  0  0  0  0  0  0  0
   14.3056   71.0049   -9.1169 H   0  0  0  0  0  0  0  0  0  0  0  0
   14.6099   68.7309   -5.9343 O   0  0  0  0  0  0  0  0  0  0  0  0
   15.6492   70.7071   -1.9025 O   0  0  0  0  0  0  0  0  0  0  0  0
   16.4648   70.1481   -5.8450 N   0  0  0  0  0  0  0  0  0  0  0  0
   15.1293   69.7158   -3.9278 N   0  0  0  0  0  0  0  0  0  0  0  0
   15.3497   69.4777   -5.2904 C   0  0  0  0  0  0  0  0  0  0  0  0
   17.2517   70.9725   -5.0481 C   0  0  0  0  0  0  0  0  0  0  0  0
   17.0272   71.1900   -3.7506 C   0  0  0  0  0  0  0  0  0  0  0  0
   15.8820   70.5273   -3.0938 C   0  0  0  0  0  0  0  0  0  0  0  0
   14.3578   69.2596   -3.5198 H   0  0  0  0  0  0  0  0  0  0  0  0
   19.8673   73.6733   -5.7982 O   0  0  0  0  0  0  0  0  0  0  0  0
   19.6179   74.7527   -4.6211 P   0  0  2  0  0  0  0  0  0  0  0  0
   18.0446   74.5793   -4.2859 O   0  0  0  0  0  0  0  0  0  0  0  0
   20.0249   76.1539   -4.9746 O   0  0  0  0  0  0  0  0  0  0  0  0
   20.3784   74.1393   -3.3364 O   0  0  0  0  0  0  0  0  0  0  0  0
   22.6848   74.2825   -2.8106 O   0  0  0  0  0  0  0  0  0  0  0  0
   21.8706   70.5679   -1.2012 O   0  0  0  0  0  0  0  0  0  0  0  0
   22.3265   72.8013    0.5459 O   0  0  0  0  0  0  0  0  0  0  0  0
   20.6283   71.3667   -3.6909 O   0  0  0  0  0  0  0  0  0  0  0  0
   21.5895   71.9251   -1.5541 C   0  0  1  0  0  0  0  0  0  0  0  0
   22.6080   72.8243   -0.8507 C   0  0  1  0  0  0  0  0  0  0  0  0
   21.6936   72.0784   -3.0704 C   0  0  2  0  0  0  0  0  0  0  0  0
   22.5411   74.2611   -1.3856 C   0  0  1  0  0  0  0  0  0  0  0  0
   21.6660   73.5485   -3.4926 C   0  0  1  0  0  0  0  0  0  0  0  0
   21.8057   70.4637   -0.2398 H   0  0  0  0  0  0  0  0  0  0  0  0
   22.3715   71.8883    0.8710 H   0  0  0  0  0  0  0  0  0  0  0  0
   20.6570   70.4375   -3.4158 H   0  0  0  0  0  0  0  0  0  0  0  0
   23.2751   75.5472    0.4894 O   0  0  0  0  0  0  0  0  0  0  0  0
   23.6525   75.1373   -0.8120 C   0  0  0  0  0  0  0  0  0  0  0  0
   23.9733   76.1055    0.8671 H   0  0  0  0  0  0  0  0  0  0  0  0
 25 28  1  0
 25 24  1  0
 25 26  1  1
 25 27  2  0
  1  4  1  0
  1 24  1  0
  1  2  1  6
  1  3  2  0
  6 11  1  0
  6 12  1  0
 29 36  1  0
 29 37  1  0
  9  7  1  6
  7 13  1  0
 10  8  1  6
  8 14  1  0
 37 28  1  1
  4  5  1  0
 33 30  1  6
 30 38  1  0
 34 31  1  1
 31 39  1  0
 35 32  1  6
 32 40  1  0
 41 42  1  0
 41 43  1  0
 15 19  2  0
 16 22  2  0
 12 17  1  1
 17 19  1  0
 17 20  1  0
 18 19  1  0
 18 22  1  0
 18 23  1  0
  9 10  1  0
  9 11  1  0
 10 12  1  0
 11  5  1  1
 33 34  1  0
 33 35  1  0
 34 36  1  0
 35 37  1  0
 36 42  1  1
 20 21  2  0
 21 22  1  0
M  CHG  2   2  -1  26  -1
M  END
>  <COMPND>  (84) 
    8629 

>  <AUTHOR>  (84) 
    GENERATED BY OPEN BABEL 3.1.1

>  <MASTER>  (84) 
        0    0    0    0    0    0    0    0   58    0   58    0

>  <minimizedAffinity>  (84) 
-7.31894

>  <CNNscore>  (84) 
0.4925589263

>  <CNNaffinity>  (84) 
4.3591403961

>  <CNN_VS>  (84) 
2.1471335888

>  <CNNaffinity_variance>  (84) 
0.2575702071

$$$$
85
     RDKit          3D

 43 45  0  0  0  0  0  0  0  0999 V2000
   21.3308   71.5560   -2.6214 P   0  0  2  0  0  0  0  0  0  0  0  0
   22.6514   71.8569   -3.5061 O   0  0  0  0  0  0  0  0  0  0  0  0
   21.4493   70.3925   -1.6813 O   0  0  0  0  0  0  0  0  0  0  0  0
   20.1439   71.4564   -3.7165 O   0  0  0  0  0  0  0  0  0  0  0  0
   19.2504   70.3588   -3.6472 C   0  0  0  0  0  0  0  0  0  0  0  0
   17.4250   71.5051   -4.7092 O   0  0  0  0  0  0  0  0  0  0  0  0
   15.6965   70.3765   -2.5345 O   0  0  0  0  0  0  0  0  0  0  0  0
   15.1659   68.7206   -4.6352 O   0  0  0  0  0  0  0  0  0  0  0  0
   16.8126   69.7855   -3.1980 C   0  0  1  0  0  0  0  0  0  0  0  0
   16.4261   69.3588   -4.5988 C   0  0  2  0  0  0  0  0  0  0  0  0
   17.8324   70.8843   -3.4703 C   0  0  1  0  0  0  0  0  0  0  0  0
   16.4328   70.6824   -5.3445 C   0  0  2  0  0  0  0  0  0  0  0  0
   15.0318   69.6939   -2.3498 H   0  0  0  0  0  0  0  0  0  0  0  0
   15.2130   67.8835   -4.1474 H   0  0  0  0  0  0  0  0  0  0  0  0
   14.5582   70.2164   -7.4052 O   0  0  0  0  0  0  0  0  0  0  0  0
   17.8523   70.1058  -10.6267 O   0  0  0  0  0  0  0  0  0  0  0  0
   16.7729   70.5283   -6.7308 N   0  0  0  0  0  0  0  0  0  0  0  0
   16.1999   70.1619   -9.0076 N   0  0  0  0  0  0  0  0  0  0  0  0
   15.7559   70.2965   -7.6860 C   0  0  0  0  0  0  0  0  0  0  0  0
   18.1023   70.6077   -7.1312 C   0  0  0  0  0  0  0  0  0  0  0  0
   18.5094   70.4758   -8.3954 C   0  0  0  0  0  0  0  0  0  0  0  0
   17.5097   70.2316   -9.4551 C   0  0  0  0  0  0  0  0  0  0  0  0
   15.5090   69.9994   -9.6903 H   0  0  0  0  0  0  0  0  0  0  0  0
   21.0437   72.9751   -1.9026 O   0  0  0  0  0  0  0  0  0  0  0  0
   20.2637   74.2910   -2.4249 P   0  0  2  0  0  0  0  0  0  0  0  0
   20.8684   75.4725   -1.4996 O   0  0  0  0  0  0  0  0  0  0  0  0
   18.7674   74.1764   -2.3835 O   0  0  0  0  0  0  0  0  0  0  0  0
   20.8728   74.5710   -3.8931 O   0  0  0  0  0  0  0  0  0  0  0  0
   21.0958   76.5255   -5.2148 O   0  0  0  0  0  0  0  0  0  0  0  0
   19.9206   73.8726   -8.1529 O   0  0  0  0  0  0  0  0  0  0  0  0
   22.6420   74.7869   -8.0742 O   0  0  0  0  0  0  0  0  0  0  0  0
   18.7460   73.7155   -5.5118 O   0  0  0  0  0  0  0  0  0  0  0  0
   20.5897   74.2786   -6.9559 C   0  0  1  0  0  0  0  0  0  0  0  0
   21.5908   75.3782   -7.3154 C   0  0  1  0  0  0  0  0  0  0  0  0
   19.5563   74.7976   -5.9579 C   0  0  2  0  0  0  0  0  0  0  0  0
   22.1535   76.0488   -6.0549 C   0  0  1  0  0  0  0  0  0  0  0  0
   20.2200   75.4895   -4.7659 C   0  0  1  0  0  0  0  0  0  0  0  0
   20.5711   73.5415   -8.7906 H   0  0  0  0  0  0  0  0  0  0  0  0
   22.2732   74.3666   -8.8669 H   0  0  0  0  0  0  0  0  0  0  0  0
   18.3312   73.2860   -6.2756 H   0  0  0  0  0  0  0  0  0  0  0  0
   24.2148   76.7838   -7.0140 O   0  0  0  0  0  0  0  0  0  0  0  0
   23.0327   77.2514   -6.3909 C   0  0  0  0  0  0  0  0  0  0  0  0
   24.7840   77.5384   -7.2338 H   0  0  0  0  0  0  0  0  0  0  0  0
 25 28  1  0
 25 24  1  0
 25 26  1  1
 25 27  2  0
  1  4  1  0
  1 24  1  0
  1  2  1  6
  1  3  2  0
  6 11  1  0
  6 12  1  0
 29 36  1  0
 29 37  1  0
  9  7  1  6
  7 13  1  0
 10  8  1  1
  8 14  1  0
 37 28  1  6
  4  5  1  0
 33 30  1  6
 30 38  1  0
 34 31  1  1
 31 39  1  0
 35 32  1  1
 32 40  1  0
 41 42  1  0
 41 43  1  0
 15 19  2  0
 16 22  2  0
 12 17  1  6
 17 19  1  0
 17 20  1  0
 18 19  1  0
 18 22  1  0
 18 23  1  0
  9 10  1  0
  9 11  1  0
 10 12  1  0
 11  5  1  6
 33 34  1  0
 33 35  1  0
 34 36  1  0
 35 37  1  0
 36 42  1  6
 20 21  2  0
 21 22  1  0
M  CHG  2   2  -1  26  -1
M  END
>  <COMPND>  (85) 
    8629 

>  <AUTHOR>  (85) 
    GENERATED BY OPEN BABEL 3.1.1

>  <MASTER>  (85) 
        0    0    0    0    0    0    0    0   58    0   58    0

>  <minimizedAffinity>  (85) 
-6.84102

>  <CNNscore>  (85) 
0.4903327525

>  <CNNaffinity>  (85) 
4.2853479385

>  <CNN_VS>  (85) 
2.1012463570

>  <CNNaffinity_variance>  (85) 
0.1929322332

$$$$
86
     RDKit          3D

 43 45  0  0  0  0  0  0  0  0999 V2000
   18.8273   71.5495   -3.1173 P   0  0  2  0  0  0  0  0  0  0  0  0
   18.8101   69.9818   -2.7181 O   0  0  0  0  0  0  0  0  0  0  0  0
   17.5453   72.2842   -2.8559 O   0  0  0  0  0  0  0  0  0  0  0  0
   19.3392   71.5539   -4.6522 O   0  0  0  0  0  0  0  0  0  0  0  0
   18.8921   72.5885   -5.5110 C   0  0  0  0  0  0  0  0  0  0  0  0
   18.3040   70.7664   -6.9630 O   0  0  0  0  0  0  0  0  0  0  0  0
   18.5564   72.7273   -9.2173 O   0  0  0  0  0  0  0  0  0  0  0  0
   15.8580   72.5900   -8.8483 O   0  0  0  0  0  0  0  0  0  0  0  0
   18.0673   72.9331   -7.8931 C   0  0  1  0  0  0  0  0  0  0  0  0
   16.6912   72.3197   -7.7395 C   0  0  2  0  0  0  0  0  0  0  0  0
   18.9030   72.0807   -6.9464 C   0  0  1  0  0  0  0  0  0  0  0  0
   17.0184   70.8426   -7.6004 C   0  0  2  0  0  0  0  0  0  0  0  0
   18.0382   73.2618   -9.8400 H   0  0  0  0  0  0  0  0  0  0  0  0
   15.6786   73.5421   -8.8936 H   0  0  0  0  0  0  0  0  0  0  0  0
   14.3282   70.4101   -8.3445 O   0  0  0  0  0  0  0  0  0  0  0  0
   13.4203   68.1428   -4.4360 O   0  0  0  0  0  0  0  0  0  0  0  0
   16.0571   70.1420   -6.7965 N   0  0  0  0  0  0  0  0  0  0  0  0
   13.8783   69.2813   -6.3978 N   0  0  0  0  0  0  0  0  0  0  0  0
   14.7312   69.9803   -7.2616 C   0  0  0  0  0  0  0  0  0  0  0  0
   16.4324   69.6236   -5.5619 C   0  0  0  0  0  0  0  0  0  0  0  0
   15.6067   68.9607   -4.7495 C   0  0  0  0  0  0  0  0  0  0  0  0
   14.2039   68.7482   -5.1607 C   0  0  0  0  0  0  0  0  0  0  0  0
   12.9497   69.1568   -6.7008 H   0  0  0  0  0  0  0  0  0  0  0  0
   20.1053   72.1171   -2.3064 O   0  0  0  0  0  0  0  0  0  0  0  0
   21.6213   71.5673   -2.1949 P   0  0  2  0  0  0  0  0  0  0  0  0
   21.8867   70.9130   -3.6505 O   0  0  0  0  0  0  0  0  0  0  0  0
   21.8536   70.6320   -1.0438 O   0  0  0  0  0  0  0  0  0  0  0  0
   22.5371   72.8962   -2.1722 O   0  0  0  0  0  0  0  0  0  0  0  0
   21.9971   75.1794   -1.8377 O   0  0  0  0  0  0  0  0  0  0  0  0
   24.8516   75.6024   -4.7913 O   0  0  0  0  0  0  0  0  0  0  0  0
   25.4803   76.3587   -2.0930 O   0  0  0  0  0  0  0  0  0  0  0  0
   22.9795   73.3971   -4.8977 O   0  0  0  0  0  0  0  0  0  0  0  0
   24.2483   75.0106   -3.6375 C   0  0  1  0  0  0  0  0  0  0  0  0
   24.1583   76.0763   -2.5434 C   0  0  1  0  0  0  0  0  0  0  0  0
   22.8566   74.5013   -4.0078 C   0  0  2  0  0  0  0  0  0  0  0  0
   23.2863   75.5981   -1.3747 C   0  0  1  0  0  0  0  0  0  0  0  0
   22.0550   74.0973   -2.7691 C   0  0  1  0  0  0  0  0  0  0  0  0
   25.7358   75.9274   -4.5631 H   0  0  0  0  0  0  0  0  0  0  0  0
   26.0207   76.6591   -2.8406 H   0  0  0  0  0  0  0  0  0  0  0  0
   23.4886   73.6658   -5.6778 H   0  0  0  0  0  0  0  0  0  0  0  0
   24.1751   76.7559    0.5170 O   0  0  0  0  0  0  0  0  0  0  0  0
   23.0537   76.7021   -0.3456 C   0  0  0  0  0  0  0  0  0  0  0  0
   24.0412   77.4544    1.1772 H   0  0  0  0  0  0  0  0  0  0  0  0
 25 28  1  0
 25 24  1  0
 25 26  1  6
 25 27  2  0
  1  4  1  0
  1 24  1  0
  1  2  1  1
  1  3  2  0
  6 11  1  0
  6 12  1  0
 29 36  1  0
 29 37  1  0
  9  7  1  6
  7 13  1  0
 10  8  1  6
  8 14  1  0
 37 28  1  1
  4  5  1  0
 33 30  1  6
 30 38  1  0
 34 31  1  1
 31 39  1  0
 35 32  1  6
 32 40  1  0
 41 42  1  0
 41 43  1  0
 15 19  2  0
 16 22  2  0
 12 17  1  1
 17 19  1  0
 17 20  1  0
 18 19  1  0
 18 22  1  0
 18 23  1  0
  9 10  1  0
  9 11  1  0
 10 12  1  0
 11  5  1  1
 33 34  1  0
 33 35  1  0
 34 36  1  0
 35 37  1  0
 36 42  1  1
 20 21  2  0
 21 22  1  0
M  CHG  2   2  -1  26  -1
M  END
>  <COMPND>  (86) 
    8629 

>  <AUTHOR>  (86) 
    GENERATED BY OPEN BABEL 3.1.1

>  <MASTER>  (86) 
        0    0    0    0    0    0    0    0   58    0   58    0

>  <minimizedAffinity>  (86) 
-6.96099

>  <CNNscore>  (86) 
0.4575380981

>  <CNNaffinity>  (86) 
4.1617703438

>  <CNN_VS>  (86) 
1.9041684866

>  <CNNaffinity_variance>  (86) 
0.2213472873

$$$$
87
     RDKit          3D

 43 45  0  0  0  0  0  0  0  0999 V2000
   17.6173   74.1928   -5.7462 P   0  0  2  0  0  0  0  0  0  0  0  0
   16.2292   73.9552   -6.5424 O   0  0  0  0  0  0  0  0  0  0  0  0
   17.7887   75.5665   -5.1672 O   0  0  0  0  0  0  0  0  0  0  0  0
   18.7539   73.7275   -6.7995 O   0  0  0  0  0  0  0  0  0  0  0  0
   18.3610   73.4180   -8.1253 C   0  0  0  0  0  0  0  0  0  0  0  0
   18.9128   71.1703   -7.4792 O   0  0  0  0  0  0  0  0  0  0  0  0
   19.3615   70.6412  -10.3963 O   0  0  0  0  0  0  0  0  0  0  0  0
   16.8869   69.5765   -9.9728 O   0  0  0  0  0  0  0  0  0  0  0  0
   18.3897   71.4770   -9.7700 C   0  0  1  0  0  0  0  0  0  0  0  0
   17.3033   70.6349   -9.1342 C   0  0  2  0  0  0  0  0  0  0  0  0
   19.0414   72.1255   -8.5550 C   0  0  1  0  0  0  0  0  0  0  0  0
   17.9852   70.1443   -7.8683 C   0  0  2  0  0  0  0  0  0  0  0  0
   18.9685   70.2164  -11.1753 H   0  0  0  0  0  0  0  0  0  0  0  0
   16.4593   69.9397  -10.7640 H   0  0  0  0  0  0  0  0  0  0  0  0
   18.7236   69.4078   -5.2434 O   0  0  0  0  0  0  0  0  0  0  0  0
   14.3358   69.3259   -3.8358 O   0  0  0  0  0  0  0  0  0  0  0  0
   17.0562   69.9243   -6.7959 N   0  0  0  0  0  0  0  0  0  0  0  0
   16.5382   69.3678   -4.5446 N   0  0  0  0  0  0  0  0  0  0  0  0
   17.5304   69.5564   -5.5152 C   0  0  0  0  0  0  0  0  0  0  0  0
   15.6918   70.0740   -7.0193 C   0  0  0  0  0  0  0  0  0  0  0  0
   14.7585   69.8892   -6.0834 C   0  0  0  0  0  0  0  0  0  0  0  0
   15.1699   69.5033   -4.7182 C   0  0  0  0  0  0  0  0  0  0  0  0
   16.8450   69.1107   -3.6449 H   0  0  0  0  0  0  0  0  0  0  0  0
   17.6206   72.9985   -4.6569 O   0  0  0  0  0  0  0  0  0  0  0  0
   17.4958   73.0309   -3.0456 P   0  0  2  0  0  0  0  0  0  0  0  0
   16.9065   71.5668   -2.6896 O   0  0  0  0  0  0  0  0  0  0  0  0
   16.6790   74.1731   -2.5146 O   0  0  0  0  0  0  0  0  0  0  0  0
   19.0204   72.9963   -2.5170 O   0  0  0  0  0  0  0  0  0  0  0  0
   21.1171   73.3419   -3.5663 O   0  0  0  0  0  0  0  0  0  0  0  0
   22.0855   70.0908   -1.2120 O   0  0  0  0  0  0  0  0  0  0  0  0
   23.0935   72.6904   -0.5237 O   0  0  0  0  0  0  0  0  0  0  0  0
   19.4893   70.2297   -2.4848 O   0  0  0  0  0  0  0  0  0  0  0  0
   21.4180   71.3141   -1.5333 C   0  0  1  0  0  0  0  0  0  0  0  0
   22.4786   72.3904   -1.7735 C   0  0  1  0  0  0  0  0  0  0  0  0
   20.5700   71.1058   -2.7866 C   0  0  2  0  0  0  0  0  0  0  0  0
   21.8567   73.6553   -2.3804 C   0  0  1  0  0  0  0  0  0  0  0  0
   20.0402   72.4312   -3.3368 C   0  0  1  0  0  0  0  0  0  0  0  0
   22.6254   70.2161   -0.4168 H   0  0  0  0  0  0  0  0  0  0  0  0
   23.4819   71.8833   -0.1510 H   0  0  0  0  0  0  0  0  0  0  0  0
   19.8378   69.3942   -2.1377 H   0  0  0  0  0  0  0  0  0  0  0  0
   22.2657   75.8899   -3.1208 O   0  0  0  0  0  0  0  0  0  0  0  0
   22.9169   74.6816   -2.7740 C   0  0  0  0  0  0  0  0  0  0  0  0
   22.9282   76.5525   -3.3733 H   0  0  0  0  0  0  0  0  0  0  0  0
 25 28  1  0
 25 24  1  0
 25 26  1  1
 25 27  2  0
  1  4  1  0
  1 24  1  0
  1  2  1  6
  1  3  2  0
  6 11  1  0
  6 12  1  0
 29 36  1  0
 29 37  1  0
  9  7  1  1
  7 13  1  0
 10  8  1  6
  8 14  1  0
 37 28  1  1
  4  5  1  0
 33 30  1  6
 30 38  1  0
 34 31  1  1
 31 39  1  0
 35 32  1  1
 32 40  1  0
 41 42  1  0
 41 43  1  0
 15 19  2  0
 16 22  2  0
 12 17  1  1
 17 19  1  0
 17 20  1  0
 18 19  1  0
 18 22  1  0
 18 23  1  0
  9 10  1  0
  9 11  1  0
 10 12  1  0
 11  5  1  1
 33 34  1  0
 33 35  1  0
 34 36  1  0
 35 37  1  0
 36 42  1  6
 20 21  2  0
 21 22  1  0
M  CHG  2   2  -1  26  -1
M  END
>  <COMPND>  (87) 
    8629 

>  <AUTHOR>  (87) 
    GENERATED BY OPEN BABEL 3.1.1

>  <MASTER>  (87) 
        0    0    0    0    0    0    0    0   58    0   58    0

>  <minimizedAffinity>  (87) 
-7.03355

>  <CNNscore>  (87) 
0.4546441138

>  <CNNaffinity>  (87) 
4.1392774582

>  <CNN_VS>  (87) 
1.8818981647

>  <CNNaffinity_variance>  (87) 
0.7253459692

$$$$
88
     RDKit          3D

 43 45  0  0  0  0  0  0  0  0999 V2000
   21.5830   71.0583   -2.4635 P   0  0  2  0  0  0  0  0  0  0  0  0
   21.8150   72.2960   -3.4793 O   0  0  0  0  0  0  0  0  0  0  0  0
   22.3988   69.8342   -2.7592 O   0  0  0  0  0  0  0  0  0  0  0  0
   19.9784   70.8505   -2.4646 O   0  0  0  0  0  0  0  0  0  0  0  0
   19.3109   70.7474   -3.7102 C   0  0  0  0  0  0  0  0  0  0  0  0
   17.2994   71.5340   -4.7632 O   0  0  0  0  0  0  0  0  0  0  0  0
   15.8313   70.2854   -2.4662 O   0  0  0  0  0  0  0  0  0  0  0  0
   15.5040   68.4449   -4.4517 O   0  0  0  0  0  0  0  0  0  0  0  0
   17.0060   69.8342   -3.1383 C   0  0  1  0  0  0  0  0  0  0  0  0
   16.6501   69.2702   -4.4980 C   0  0  2  0  0  0  0  0  0  0  0  0
   17.8341   71.0584   -3.5086 C   0  0  1  0  0  0  0  0  0  0  0  0
   16.4292   70.5322   -5.3146 C   0  0  2  0  0  0  0  0  0  0  0  0
   15.2865   69.5210   -2.2195 H   0  0  0  0  0  0  0  0  0  0  0  0
   15.6949   67.6558   -3.9211 H   0  0  0  0  0  0  0  0  0  0  0  0
   14.5401   70.6223   -7.4125 O   0  0  0  0  0  0  0  0  0  0  0  0
   17.7693   69.8158  -10.6004 O   0  0  0  0  0  0  0  0  0  0  0  0
   16.7488   70.3495   -6.7023 N   0  0  0  0  0  0  0  0  0  0  0  0
   16.1496   70.2208   -8.9981 N   0  0  0  0  0  0  0  0  0  0  0  0
   15.7258   70.4128   -7.6769 C   0  0  0  0  0  0  0  0  0  0  0  0
   18.0644   70.1110   -7.0849 C   0  0  0  0  0  0  0  0  0  0  0  0
   18.4518   69.9287   -8.3490 C   0  0  0  0  0  0  0  0  0  0  0  0
   17.4447   69.9795   -9.4284 C   0  0  0  0  0  0  0  0  0  0  0  0
   15.4541   70.2602   -9.6942 H   0  0  0  0  0  0  0  0  0  0  0  0
   21.8627   71.7195   -1.0152 O   0  0  0  0  0  0  0  0  0  0  0  0
   21.5621   73.2038   -0.4499 P   0  0  2  0  0  0  0  0  0  0  0  0
   22.7172   74.1038   -1.1379 O   0  0  0  0  0  0  0  0  0  0  0  0
   21.5164   73.2942    1.0480 O   0  0  0  0  0  0  0  0  0  0  0  0
   20.1998   73.6543   -1.1890 O   0  0  0  0  0  0  0  0  0  0  0  0
   20.1351   75.1204   -3.0500 O   0  0  0  0  0  0  0  0  0  0  0  0
   16.3843   75.8656   -1.4920 O   0  0  0  0  0  0  0  0  0  0  0  0
   16.6360   74.3549   -3.9214 O   0  0  0  0  0  0  0  0  0  0  0  0
   18.6308   75.4531    0.2865 O   0  0  0  0  0  0  0  0  0  0  0  0
   17.5246   75.0662   -1.8178 C   0  0  1  0  0  0  0  0  0  0  0  0
   17.7081   75.0890   -3.3365 C   0  0  1  0  0  0  0  0  0  0  0  0
   18.7545   75.6427   -1.1189 C   0  0  2  0  0  0  0  0  0  0  0  0
   19.0568   74.4786   -3.7408 C   0  0  1  0  0  0  0  0  0  0  0  0
   20.0463   75.0012   -1.6287 C   0  0  1  0  0  0  0  0  0  0  0  0
   15.5998   75.5047   -1.9322 H   0  0  0  0  0  0  0  0  0  0  0  0
   15.7902   74.7503   -3.6580 H   0  0  0  0  0  0  0  0  0  0  0  0
   17.8093   75.8639    0.5970 H   0  0  0  0  0  0  0  0  0  0  0  0
   18.4584   75.6231   -5.7511 O   0  0  0  0  0  0  0  0  0  0  0  0
   19.3297   74.6335   -5.2354 C   0  0  0  0  0  0  0  0  0  0  0  0
   18.6210   75.7327   -6.7015 H   0  0  0  0  0  0  0  0  0  0  0  0
 25 28  1  0
 25 24  1  0
 25 26  1  6
 25 27  2  0
  1  4  1  0
  1 24  1  0
  1  2  1  6
  1  3  2  0
  6 11  1  0
  6 12  1  0
 29 36  1  0
 29 37  1  0
  9  7  1  6
  7 13  1  0
 10  8  1  1
  8 14  1  0
 37 28  1  6
  4  5  1  0
 33 30  1  6
 30 38  1  0
 34 31  1  6
 31 39  1  0
 35 32  1  1
 32 40  1  0
 41 42  1  0
 41 43  1  0
 15 19  2  0
 16 22  2  0
 12 17  1  6
 17 19  1  0
 17 20  1  0
 18 19  1  0
 18 22  1  0
 18 23  1  0
  9 10  1  0
  9 11  1  0
 10 12  1  0
 11  5  1  6
 33 34  1  0
 33 35  1  0
 34 36  1  0
 35 37  1  0
 36 42  1  6
 20 21  2  0
 21 22  1  0
M  CHG  2   2  -1  26  -1
M  END
>  <COMPND>  (88) 
    8629 

>  <AUTHOR>  (88) 
    GENERATED BY OPEN BABEL 3.1.1

>  <MASTER>  (88) 
        0    0    0    0    0    0    0    0   58    0   58    0

>  <minimizedAffinity>  (88) 
-6.14746

>  <CNNscore>  (88) 
0.4169583023

>  <CNNaffinity>  (88) 
4.0744743347

>  <CNN_VS>  (88) 
1.6988859177

>  <CNNaffinity_variance>  (88) 
0.1870964766

$$$$
89
     RDKit          3D

 43 45  0  0  0  0  0  0  0  0999 V2000
   16.9039   71.8130   -3.1849 P   0  0  2  0  0  0  0  0  0  0  0  0
   15.7577   71.4786   -2.0933 O   0  0  0  0  0  0  0  0  0  0  0  0
   17.5695   73.1472   -3.0166 O   0  0  0  0  0  0  0  0  0  0  0  0
   16.1702   71.5682   -4.6060 O   0  0  0  0  0  0  0  0  0  0  0  0
   15.8690   72.6925   -5.4140 C   0  0  0  0  0  0  0  0  0  0  0  0
   16.4696   72.8230   -7.7370 O   0  0  0  0  0  0  0  0  0  0  0  0
   14.8687   70.3136   -8.0989 O   0  0  0  0  0  0  0  0  0  0  0  0
   17.4312   69.3820   -8.0490 O   0  0  0  0  0  0  0  0  0  0  0  0
   15.6867   70.7113   -6.9998 C   0  0  1  0  0  0  0  0  0  0  0  0
   17.1518   70.5846   -7.3617 C   0  0  2  0  0  0  0  0  0  0  0  0
   15.5323   72.2164   -6.8205 C   0  0  1  0  0  0  0  0  0  0  0  0
   17.3707   71.8156   -8.2247 C   0  0  2  0  0  0  0  0  0  0  0  0
   14.9505   69.3558   -8.2327 H   0  0  0  0  0  0  0  0  0  0  0  0
   17.2770   68.6284   -7.4581 H   0  0  0  0  0  0  0  0  0  0  0  0
   19.4840   70.9959   -9.9100 O   0  0  0  0  0  0  0  0  0  0  0  0
   22.4882   73.7866   -7.8059 O   0  0  0  0  0  0  0  0  0  0  0  0
   18.7153   72.3120   -8.1397 N   0  0  0  0  0  0  0  0  0  0  0  0
   20.9781   72.3863   -8.8611 N   0  0  0  0  0  0  0  0  0  0  0  0
   19.7023   71.8343   -9.0331 C   0  0  0  0  0  0  0  0  0  0  0  0
   19.0437   73.2620   -7.1788 C   0  0  0  0  0  0  0  0  0  0  0  0
   20.2654   73.7774   -7.0270 C   0  0  0  0  0  0  0  0  0  0  0  0
   21.3543   73.3318   -7.9202 C   0  0  0  0  0  0  0  0  0  0  0  0
   21.6820   72.0682   -9.4720 H   0  0  0  0  0  0  0  0  0  0  0  0
   17.8994   70.5449   -3.0668 O   0  0  0  0  0  0  0  0  0  0  0  0
   19.4054   70.3233   -3.6106 P   0  0  2  0  0  0  0  0  0  0  0  0
   19.2537   70.5118   -5.2103 O   0  0  0  0  0  0  0  0  0  0  0  0
   20.0236   69.0194   -3.1965 O   0  0  0  0  0  0  0  0  0  0  0  0
   20.2133   71.6320   -3.1208 O   0  0  0  0  0  0  0  0  0  0  0  0
   22.0585   72.8472   -3.9781 O   0  0  0  0  0  0  0  0  0  0  0  0
   23.1049   72.7891    0.0160 O   0  0  0  0  0  0  0  0  0  0  0  0
   22.1825   75.2354   -1.1727 O   0  0  0  0  0  0  0  0  0  0  0  0
   21.8783   70.4606   -1.1893 O   0  0  0  0  0  0  0  0  0  0  0  0
   22.2056   72.8450   -1.0946 C   0  0  1  0  0  0  0  0  0  0  0  0
   22.5472   74.0826   -1.9266 C   0  0  1  0  0  0  0  0  0  0  0  0
   22.3639   71.5755   -1.9294 C   0  0  2  0  0  0  0  0  0  0  0  0
   21.8078   74.0676   -3.2713 C   0  0  1  0  0  0  0  0  0  0  0  0
   21.6300   71.6841   -3.2672 C   0  0  1  0  0  0  0  0  0  0  0  0
   23.0091   73.5921    0.5504 H   0  0  0  0  0  0  0  0  0  0  0  0
   22.6559   75.2325   -0.3259 H   0  0  0  0  0  0  0  0  0  0  0  0
   22.3510   70.4026   -0.3449 H   0  0  0  0  0  0  0  0  0  0  0  0
   23.1742   74.6980   -5.1272 O   0  0  0  0  0  0  0  0  0  0  0  0
   22.2533   75.2099   -4.1817 C   0  0  0  0  0  0  0  0  0  0  0  0
   23.4661   75.4139   -5.7137 H   0  0  0  0  0  0  0  0  0  0  0  0
 25 28  1  0
 25 24  1  0
 25 26  1  6
 25 27  2  0
  1  4  1  0
  1 24  1  0
  1  2  1  1
  1  3  2  0
  6 11  1  0
  6 12  1  0
 29 36  1  0
 29 37  1  0
  9  7  1  6
  7 13  1  0
 10  8  1  6
  8 14  1  0
 37 28  1  1
  4  5  1  0
 33 30  1  1
 30 38  1  0
 34 31  1  1
 31 39  1  0
 35 32  1  1
 32 40  1  0
 41 42  1  0
 41 43  1  0
 15 19  2  0
 16 22  2  0
 12 17  1  1
 17 19  1  0
 17 20  1  0
 18 19  1  0
 18 22  1  0
 18 23  1  0
  9 10  1  0
  9 11  1  0
 10 12  1  0
 11  5  1  1
 33 34  1  0
 33 35  1  0
 34 36  1  0
 35 37  1  0
 36 42  1  6
 20 21  2  0
 21 22  1  0
M  CHG  2   2  -1  26  -1
M  END
>  <COMPND>  (89) 
    8629 

>  <AUTHOR>  (89) 
    GENERATED BY OPEN BABEL 3.1.1

>  <MASTER>  (89) 
        0    0    0    0    0    0    0    0   58    0   58    0

>  <minimizedAffinity>  (89) 
-7.52546

>  <CNNscore>  (89) 
0.4077827036

>  <CNNaffinity>  (89) 
4.1156449318

>  <CNN_VS>  (89) 
1.6782888174

>  <CNNaffinity_variance>  (89) 
0.5107402802

$$$$
90
     RDKit          3D

 43 45  0  0  0  0  0  0  0  0999 V2000
   20.5544   72.9744   -5.2817 P   0  0  2  0  0  0  0  0  0  0  0  0
   19.7475   74.1795   -4.5648 O   0  0  0  0  0  0  0  0  0  0  0  0
   21.7760   73.3953   -6.0445 O   0  0  0  0  0  0  0  0  0  0  0  0
   19.4200   72.2047   -6.1412 O   0  0  0  0  0  0  0  0  0  0  0  0
   19.2566   72.5483   -7.5061 C   0  0  0  0  0  0  0  0  0  0  0  0
   18.2638   70.3708   -7.2905 O   0  0  0  0  0  0  0  0  0  0  0  0
   17.4224   70.6767  -10.1521 O   0  0  0  0  0  0  0  0  0  0  0  0
   15.1307   71.2585   -8.7933 O   0  0  0  0  0  0  0  0  0  0  0  0
   17.5049   71.6639   -9.1255 C   0  0  1  0  0  0  0  0  0  0  0  0
   16.3628   71.4991   -8.1446 C   0  0  2  0  0  0  0  0  0  0  0  0
   18.7165   71.3409   -8.2601 C   0  0  1  0  0  0  0  0  0  0  0  0
   16.8282   70.3143   -7.3154 C   0  0  2  0  0  0  0  0  0  0  0  0
   16.6561   70.8623  -10.7181 H   0  0  0  0  0  0  0  0  0  0  0  0
   14.8776   72.0409   -9.3075 H   0  0  0  0  0  0  0  0  0  0  0  0
   16.4138   68.0445   -5.6862 O   0  0  0  0  0  0  0  0  0  0  0  0
   14.9357   70.6181   -2.1602 O   0  0  0  0  0  0  0  0  0  0  0  0
   16.3362   70.3622   -5.9674 N   0  0  0  0  0  0  0  0  0  0  0  0
   15.6783   69.3278   -3.9318 N   0  0  0  0  0  0  0  0  0  0  0  0
   16.1629   69.1642   -5.2358 C   0  0  0  0  0  0  0  0  0  0  0  0
   16.0315   71.5873   -5.3841 C   0  0  0  0  0  0  0  0  0  0  0  0
   15.5691   71.7261   -4.1398 C   0  0  0  0  0  0  0  0  0  0  0  0
   15.3597   70.5236   -3.3079 C   0  0  0  0  0  0  0  0  0  0  0  0
   15.5493   68.5069   -3.4034 H   0  0  0  0  0  0  0  0  0  0  0  0
   20.8415   71.9531   -4.0621 O   0  0  0  0  0  0  0  0  0  0  0  0
   20.1327   71.7987   -2.6176 P   0  0  2  0  0  0  0  0  0  0  0  0
   20.3336   70.2311   -2.2713 O   0  0  0  0  0  0  0  0  0  0  0  0
   18.7056   72.2633   -2.5796 O   0  0  0  0  0  0  0  0  0  0  0  0
   21.1149   72.5710   -1.5959 O   0  0  0  0  0  0  0  0  0  0  0  0
   20.5920   74.2287    0.0150 O   0  0  0  0  0  0  0  0  0  0  0  0
   24.3169   75.5844   -1.1416 O   0  0  0  0  0  0  0  0  0  0  0  0
   23.9912   74.3590    1.4352 O   0  0  0  0  0  0  0  0  0  0  0  0
   22.5069   74.4788   -3.1117 O   0  0  0  0  0  0  0  0  0  0  0  0
   23.3220   74.5998   -0.8484 C   0  0  1  0  0  0  0  0  0  0  0  0
   22.9004   74.7645    0.6131 C   0  0  1  0  0  0  0  0  0  0  0  0
   22.1278   74.8044   -1.7788 C   0  0  2  0  0  0  0  0  0  0  0  0
   21.6537   73.9268    0.9278 C   0  0  1  0  0  0  0  0  0  0  0  0
   20.9258   73.9618   -1.3486 C   0  0  1  0  0  0  0  0  0  0  0  0
   25.0781   75.4598   -0.5547 H   0  0  0  0  0  0  0  0  0  0  0  0
   24.7721   74.8953    1.2262 H   0  0  0  0  0  0  0  0  0  0  0  0
   23.2686   75.0191   -3.3722 H   0  0  0  0  0  0  0  0  0  0  0  0
   21.6505   75.4313    2.7839 O   0  0  0  0  0  0  0  0  0  0  0  0
   21.1232   74.1969    2.3341 C   0  0  0  0  0  0  0  0  0  0  0  0
   21.3211   75.6165    3.6778 H   0  0  0  0  0  0  0  0  0  0  0  0
 25 28  1  0
 25 24  1  0
 25 26  1  1
 25 27  2  0
  1  4  1  0
  1 24  1  0
  1  2  1  1
  1  3  2  0
  6 11  1  0
  6 12  1  0
 29 36  1  0
 29 37  1  0
  9  7  1  6
  7 13  1  0
 10  8  1  6
  8 14  1  0
 37 28  1  1
  4  5  1  0
 33 30  1  6
 30 38  1  0
 34 31  1  1
 31 39  1  0
 35 32  1  6
 32 40  1  0
 41 42  1  0
 41 43  1  0
 15 19  2  0
 16 22  2  0
 12 17  1  1
 17 19  1  0
 17 20  1  0
 18 19  1  0
 18 22  1  0
 18 23  1  0
  9 10  1  0
  9 11  1  0
 10 12  1  0
 11  5  1  1
 33 34  1  0
 33 35  1  0
 34 36  1  0
 35 37  1  0
 36 42  1  1
 20 21  2  0
 21 22  1  0
M  CHG  2   2  -1  26  -1
M  END
>  <COMPND>  (90) 
    8629 

>  <AUTHOR>  (90) 
    GENERATED BY OPEN BABEL 3.1.1

>  <MASTER>  (90) 
        0    0    0    0    0    0    0    0   58    0   58    0

>  <minimizedAffinity>  (90) 
-6.55592

>  <CNNscore>  (90) 
0.4023771286

>  <CNNaffinity>  (90) 
4.0803937912

>  <CNN_VS>  (90) 
1.6418571472

>  <CNNaffinity_variance>  (90) 
0.2186466902

$$$$
91
     RDKit          3D

 43 45  0  0  0  0  0  0  0  0999 V2000
   15.8268   73.5933   -4.1724 P   0  0  2  0  0  0  0  0  0  0  0  0
   14.2835   73.9026   -4.5466 O   0  0  0  0  0  0  0  0  0  0  0  0
   16.3093   74.2256   -2.9000 O   0  0  0  0  0  0  0  0  0  0  0  0
   16.6399   73.9991   -5.5110 O   0  0  0  0  0  0  0  0  0  0  0  0
   16.6552   75.3597   -5.9065 C   0  0  0  0  0  0  0  0  0  0  0  0
   18.9824   74.7867   -6.0793 O   0  0  0  0  0  0  0  0  0  0  0  0
   19.4905   77.7257   -6.3880 O   0  0  0  0  0  0  0  0  0  0  0  0
   19.6369   76.8240   -8.9575 O   0  0  0  0  0  0  0  0  0  0  0  0
   18.3985   76.9435   -6.8686 C   0  0  1  0  0  0  0  0  0  0  0  0
   18.8352   76.0989   -8.0474 C   0  0  2  0  0  0  0  0  0  0  0  0
   18.0814   75.8854   -5.8192 C   0  0  1  0  0  0  0  0  0  0  0  0
   19.5962   74.9750   -7.3649 C   0  0  2  0  0  0  0  0  0  0  0  0
   19.7110   78.4087   -7.0413 H   0  0  0  0  0  0  0  0  0  0  0  0
   19.1079   77.5273   -9.3654 H   0  0  0  0  0  0  0  0  0  0  0  0
   21.7384   73.1525   -7.6254 O   0  0  0  0  0  0  0  0  0  0  0  0
   19.2217   70.2807  -10.2061 O   0  0  0  0  0  0  0  0  0  0  0  0
   19.5283   73.7429   -8.0989 N   0  0  0  0  0  0  0  0  0  0  0  0
   20.4834   71.7240   -8.9101 N   0  0  0  0  0  0  0  0  0  0  0  0
   20.6612   72.8991   -8.1688 C   0  0  0  0  0  0  0  0  0  0  0  0
   18.3478   73.3820   -8.7394 C   0  0  0  0  0  0  0  0  0  0  0  0
   18.1950   72.2585   -9.4433 C   0  0  0  0  0  0  0  0  0  0  0  0
   19.3306   71.3218   -9.5657 C   0  0  0  0  0  0  0  0  0  0  0  0
   21.2594   71.1209   -8.9729 H   0  0  0  0  0  0  0  0  0  0  0  0
   15.8874   71.9781   -4.1860 O   0  0  0  0  0  0  0  0  0  0  0  0
   17.0005   70.9527   -3.6180 P   0  0  2  0  0  0  0  0  0  0  0  0
   17.1962   69.9057   -4.8358 O   0  0  0  0  0  0  0  0  0  0  0  0
   16.6394   70.3170   -2.3068 O   0  0  0  0  0  0  0  0  0  0  0  0
   18.3688   71.8083   -3.5923 O   0  0  0  0  0  0  0  0  0  0  0  0
   20.4389   72.2723   -4.6486 O   0  0  0  0  0  0  0  0  0  0  0  0
   21.8291   70.2245   -1.3433 O   0  0  0  0  0  0  0  0  0  0  0  0
   22.2108   73.0658   -1.5149 O   0  0  0  0  0  0  0  0  0  0  0  0
   19.3920   69.3706   -2.6512 O   0  0  0  0  0  0  0  0  0  0  0  0
   20.9575   71.1030   -2.0602 C   0  0  1  0  0  0  0  0  0  0  0  0
   21.7916   72.2603   -2.6130 C   0  0  1  0  0  0  0  0  0  0  0  0
   20.2927   70.3285   -3.1967 C   0  0  2  0  0  0  0  0  0  0  0  0
   20.9829   73.0983   -3.6124 C   0  0  1  0  0  0  0  0  0  0  0  0
   19.5558   71.2607   -4.1601 C   0  0  1  0  0  0  0  0  0  0  0  0
   22.2540   70.7100   -0.6199 H   0  0  0  0  0  0  0  0  0  0  0  0
   22.7200   72.5246   -0.8912 H   0  0  0  0  0  0  0  0  0  0  0  0
   19.8706   68.7864   -2.0434 H   0  0  0  0  0  0  0  0  0  0  0  0
   22.8736   73.5124   -5.0132 O   0  0  0  0  0  0  0  0  0  0  0  0
   21.8414   74.1615   -4.2939 C   0  0  0  0  0  0  0  0  0  0  0  0
   23.4280   74.1768   -5.4525 H   0  0  0  0  0  0  0  0  0  0  0  0
 25 28  1  0
 25 24  1  0
 25 26  1  6
 25 27  2  0
  1  4  1  0
  1 24  1  0
  1  2  1  6
  1  3  2  0
  6 11  1  0
  6 12  1  0
 29 36  1  0
 29 37  1  0
  9  7  1  1
  7 13  1  0
 10  8  1  6
  8 14  1  0
 37 28  1  1
  4  5  1  0
 33 30  1  6
 30 38  1  0
 34 31  1  1
 31 39  1  0
 35 32  1  1
 32 40  1  0
 41 42  1  0
 41 43  1  0
 15 19  2  0
 16 22  2  0
 12 17  1  6
 17 19  1  0
 17 20  1  0
 18 19  1  0
 18 22  1  0
 18 23  1  0
  9 10  1  0
  9 11  1  0
 10 12  1  0
 11  5  1  6
 33 34  1  0
 33 35  1  0
 34 36  1  0
 35 37  1  0
 36 42  1  6
 20 21  2  0
 21 22  1  0
M  CHG  2   2  -1  26  -1
M  END
>  <COMPND>  (91) 
    8629 

>  <AUTHOR>  (91) 
    GENERATED BY OPEN BABEL 3.1.1

>  <MASTER>  (91) 
        0    0    0    0    0    0    0    0   58    0   58    0

>  <minimizedAffinity>  (91) 
-6.67585

>  <CNNscore>  (91) 
0.3822958171

>  <CNNaffinity>  (91) 
3.8892295361

>  <CNN_VS>  (91) 
1.4868361950

>  <CNNaffinity_variance>  (91) 
0.6147736311

$$$$
92
     RDKit          3D

 43 45  0  0  0  0  0  0  0  0999 V2000
   17.1544   74.6740   -7.8583 P   0  0  2  0  0  0  0  0  0  0  0  0
   15.6465   75.2087   -7.6182 O   0  0  0  0  0  0  0  0  0  0  0  0
   18.1498   75.7322   -8.2338 O   0  0  0  0  0  0  0  0  0  0  0  0
   16.9745   73.4692   -8.9231 O   0  0  0  0  0  0  0  0  0  0  0  0
   17.6828   72.2617   -8.7038 C   0  0  0  0  0  0  0  0  0  0  0  0
   17.2070   70.0559   -7.8780 O   0  0  0  0  0  0  0  0  0  0  0  0
   14.3822   70.5378   -8.7609 O   0  0  0  0  0  0  0  0  0  0  0  0
   14.2492   70.9827   -6.0737 O   0  0  0  0  0  0  0  0  0  0  0  0
   15.3222   71.4550   -8.2037 C   0  0  1  0  0  0  0  0  0  0  0  0
   15.4866   71.2027   -6.7195 C   0  0  2  0  0  0  0  0  0  0  0  0
   16.7021   71.0977   -8.7418 C   0  0  1  0  0  0  0  0  0  0  0  0
   16.3798   69.9738   -6.7058 C   0  0  2  0  0  0  0  0  0  0  0  0
   13.4933   70.7464   -8.4319 H   0  0  0  0  0  0  0  0  0  0  0  0
   13.7173   71.7931   -6.1090 H   0  0  0  0  0  0  0  0  0  0  0  0
   15.6017   68.8823   -4.2196 O   0  0  0  0  0  0  0  0  0  0  0  0
   19.6917   69.8279   -2.3173 O   0  0  0  0  0  0  0  0  0  0  0  0
   17.2215   69.9214   -5.5439 N   0  0  0  0  0  0  0  0  0  0  0  0
   17.6389   69.3539   -3.2745 N   0  0  0  0  0  0  0  0  0  0  0  0
   16.7342   69.3532   -4.3438 C   0  0  0  0  0  0  0  0  0  0  0  0
   18.5148   70.4294   -5.6015 C   0  0  0  0  0  0  0  0  0  0  0  0
   19.3646   70.4236   -4.5724 C   0  0  0  0  0  0  0  0  0  0  0  0
   18.9337   69.8480   -3.2821 C   0  0  0  0  0  0  0  0  0  0  0  0
   17.3212   68.9634   -2.4281 H   0  0  0  0  0  0  0  0  0  0  0  0
   17.4875   73.8954   -6.4814 O   0  0  0  0  0  0  0  0  0  0  0  0
   17.3574   74.3627   -4.9394 P   0  0  2  0  0  0  0  0  0  0  0  0
   16.1378   73.4590   -4.3795 O   0  0  0  0  0  0  0  0  0  0  0  0
   17.1668   75.8408   -4.7584 O   0  0  0  0  0  0  0  0  0  0  0  0
   18.6721   73.7647   -4.2190 O   0  0  0  0  0  0  0  0  0  0  0  0
   20.2198   74.3316   -2.5162 O   0  0  0  0  0  0  0  0  0  0  0  0
   22.8687   73.5971   -5.5975 O   0  0  0  0  0  0  0  0  0  0  0  0
   22.6550   71.7207   -3.4338 O   0  0  0  0  0  0  0  0  0  0  0  0
   20.3555   74.9270   -6.1401 O   0  0  0  0  0  0  0  0  0  0  0  0
   21.6795   73.4022   -4.8273 C   0  0  1  0  0  0  0  0  0  0  0  0
   22.0878   73.0275   -3.4013 C   0  0  1  0  0  0  0  0  0  0  0  0
   20.8649   74.6944   -4.8313 C   0  0  2  0  0  0  0  0  0  0  0  0
   20.8822   73.0632   -2.4524 C   0  0  1  0  0  0  0  0  0  0  0  0
   19.7200   74.6435   -3.8180 C   0  0  1  0  0  0  0  0  0  0  0  0
   23.3903   72.7801   -5.5994 H   0  0  0  0  0  0  0  0  0  0  0  0
   23.4149   71.7117   -4.0368 H   0  0  0  0  0  0  0  0  0  0  0  0
   21.0899   74.9573   -6.7722 H   0  0  0  0  0  0  0  0  0  0  0  0
   21.7488   71.5147   -0.8524 O   0  0  0  0  0  0  0  0  0  0  0  0
   21.2928   72.8471   -0.9975 C   0  0  0  0  0  0  0  0  0  0  0  0
   22.0139   71.3628    0.0687 H   0  0  0  0  0  0  0  0  0  0  0  0
 25 28  1  0
 25 24  1  0
 25 26  1  1
 25 27  2  0
  1  4  1  0
  1 24  1  0
  1  2  1  1
  1  3  2  0
  6 11  1  0
  6 12  1  0
 29 36  1  0
 29 37  1  0
  9  7  1  6
  7 13  1  0
 10  8  1  6
  8 14  1  0
 37 28  1  6
  4  5  1  0
 33 30  1  6
 30 38  1  0
 34 31  1  6
 31 39  1  0
 35 32  1  6
 32 40  1  0
 41 42  1  0
 41 43  1  0
 15 19  2  0
 16 22  2  0
 12 17  1  1
 17 19  1  0
 17 20  1  0
 18 19  1  0
 18 22  1  0
 18 23  1  0
  9 10  1  0
  9 11  1  0
 10 12  1  0
 11  5  1  1
 33 34  1  0
 33 35  1  0
 34 36  1  0
 35 37  1  0
 36 42  1  1
 20 21  2  0
 21 22  1  0
M  CHG  2   2  -1  26  -1
M  END
>  <COMPND>  (92) 
    8629 

>  <AUTHOR>  (92) 
    GENERATED BY OPEN BABEL 3.1.1

>  <MASTER>  (92) 
        0    0    0    0    0    0    0    0   58    0   58    0

>  <minimizedAffinity>  (92) 
-6.67217

>  <CNNscore>  (92) 
0.3785549402

>  <CNNaffinity>  (92) 
3.8959815502

>  <CNN_VS>  (92) 
1.4748430252

>  <CNNaffinity_variance>  (92) 
0.7171627283

$$$$
93
     RDKit          3D

 43 45  0  0  0  0  0  0  0  0999 V2000
   16.0190   74.0244   -3.9541 P   0  0  2  0  0  0  0  0  0  0  0  0
   15.0868   73.5826   -5.2004 O   0  0  0  0  0  0  0  0  0  0  0  0
   15.6539   75.3360   -3.3234 O   0  0  0  0  0  0  0  0  0  0  0  0
   17.5240   73.9207   -4.5388 O   0  0  0  0  0  0  0  0  0  0  0  0
   17.7047   73.9179   -5.9442 C   0  0  0  0  0  0  0  0  0  0  0  0
   19.8156   74.7600   -5.1638 O   0  0  0  0  0  0  0  0  0  0  0  0
   20.4358   75.3386   -8.0398 O   0  0  0  0  0  0  0  0  0  0  0  0
   21.8084   73.0257   -7.5895 O   0  0  0  0  0  0  0  0  0  0  0  0
   19.7098   74.2480   -7.4752 C   0  0  1  0  0  0  0  0  0  0  0  0
   20.6583   73.2746   -6.8071 C   0  0  2  0  0  0  0  0  0  0  0  0
   18.9120   74.7786   -6.2905 C   0  0  1  0  0  0  0  0  0  0  0  0
   20.9800   73.9907   -5.5063 C   0  0  2  0  0  0  0  0  0  0  0  0
   20.9529   75.0243   -8.7986 H   0  0  0  0  0  0  0  0  0  0  0  0
   21.5516   72.5689   -8.4057 H   0  0  0  0  0  0  0  0  0  0  0  0
   23.5603   73.5261   -4.4556 O   0  0  0  0  0  0  0  0  0  0  0  0
   21.9648   70.4673   -1.3995 O   0  0  0  0  0  0  0  0  0  0  0  0
   21.2676   73.0784   -4.4356 N   0  0  0  0  0  0  0  0  0  0  0  0
   22.7637   72.0036   -2.9346 N   0  0  0  0  0  0  0  0  0  0  0  0
   22.5979   72.9178   -3.9829 C   0  0  0  0  0  0  0  0  0  0  0  0
   20.2368   72.3549   -3.8458 C   0  0  0  0  0  0  0  0  0  0  0  0
   20.4118   71.4860   -2.8480 C   0  0  0  0  0  0  0  0  0  0  0  0
   21.7712   71.2597   -2.3164 C   0  0  0  0  0  0  0  0  0  0  0  0
   23.6820   71.8750   -2.6031 H   0  0  0  0  0  0  0  0  0  0  0  0
   15.9261   72.7518   -2.9618 O   0  0  0  0  0  0  0  0  0  0  0  0
   15.9605   71.1644   -3.2651 P   0  0  2  0  0  0  0  0  0  0  0  0
   14.4104   70.8100   -3.5635 O   0  0  0  0  0  0  0  0  0  0  0  0
   16.5847   70.3429   -2.1745 O   0  0  0  0  0  0  0  0  0  0  0  0
   16.6908   71.0382   -4.6989 O   0  0  0  0  0  0  0  0  0  0  0  0
   15.4745   69.8503   -6.3500 O   0  0  0  0  0  0  0  0  0  0  0  0
   19.1841   69.8886   -8.1633 O   0  0  0  0  0  0  0  0  0  0  0  0
   17.0829   71.5506   -9.1980 O   0  0  0  0  0  0  0  0  0  0  0  0
   18.9812   69.5314   -5.2978 O   0  0  0  0  0  0  0  0  0  0  0  0
   18.1177   70.4119   -7.3668 C   0  0  1  0  0  0  0  0  0  0  0  0
   16.8688   70.5135   -8.2446 C   0  0  1  0  0  0  0  0  0  0  0  0
   17.8703   69.4747   -6.1861 C   0  0  2  0  0  0  0  0  0  0  0  0
   15.6218   70.8118   -7.4014 C   0  0  1  0  0  0  0  0  0  0  0  0
   16.5799   69.8288   -5.4447 C   0  0  1  0  0  0  0  0  0  0  0  0
   19.3467   70.4793   -8.9144 H   0  0  0  0  0  0  0  0  0  0  0  0
   17.8734   71.3503   -9.7234 H   0  0  0  0  0  0  0  0  0  0  0  0
   19.7918   69.3050   -5.7791 H   0  0  0  0  0  0  0  0  0  0  0  0
   14.2270   71.9752   -8.9538 O   0  0  0  0  0  0  0  0  0  0  0  0
   14.3427   70.7615   -8.2343 C   0  0  0  0  0  0  0  0  0  0  0  0
   13.4175   71.9573   -9.4888 H   0  0  0  0  0  0  0  0  0  0  0  0
 25 28  1  0
 25 24  1  0
 25 26  1  6
 25 27  2  0
  1  4  1  0
  1 24  1  0
  1  2  1  6
  1  3  2  0
  6 11  1  0
  6 12  1  0
 29 36  1  0
 29 37  1  0
  9  7  1  1
  7 13  1  0
 10  8  1  6
  8 14  1  0
 37 28  1  6
  4  5  1  0
 33 30  1  6
 30 38  1  0
 34 31  1  6
 31 39  1  0
 35 32  1  1
 32 40  1  0
 41 42  1  0
 41 43  1  0
 15 19  2  0
 16 22  2  0
 12 17  1  1
 17 19  1  0
 17 20  1  0
 18 19  1  0
 18 22  1  0
 18 23  1  0
  9 10  1  0
  9 11  1  0
 10 12  1  0
 11  5  1  1
 33 34  1  0
 33 35  1  0
 34 36  1  0
 35 37  1  0
 36 42  1  6
 20 21  2  0
 21 22  1  0
M  CHG  2   2  -1  26  -1
M  END
>  <COMPND>  (93) 
    8629 

>  <AUTHOR>  (93) 
    GENERATED BY OPEN BABEL 3.1.1

>  <MASTER>  (93) 
        0    0    0    0    0    0    0    0   58    0   58    0

>  <minimizedAffinity>  (93) 
-7.32171

>  <CNNscore>  (93) 
0.3741886914

>  <CNNaffinity>  (93) 
4.0205006599

>  <CNN_VS>  (93) 
1.5044258833

>  <CNNaffinity_variance>  (93) 
0.6024738550

$$$$
94
     RDKit          3D

 43 45  0  0  0  0  0  0  0  0999 V2000
   20.9550   73.5906   -6.4432 P   0  0  2  0  0  0  0  0  0  0  0  0
   20.1574   74.9725   -6.7112 O   0  0  0  0  0  0  0  0  0  0  0  0
   22.3029   73.4999   -7.0962 O   0  0  0  0  0  0  0  0  0  0  0  0
   19.8938   72.4425   -6.8598 O   0  0  0  0  0  0  0  0  0  0  0  0
   19.1098   72.6368   -8.0240 C   0  0  0  0  0  0  0  0  0  0  0  0
   18.5108   70.3740   -7.4813 O   0  0  0  0  0  0  0  0  0  0  0  0
   17.3955   70.2009  -10.2592 O   0  0  0  0  0  0  0  0  0  0  0  0
   15.1603   70.5809   -8.7439 O   0  0  0  0  0  0  0  0  0  0  0  0
   17.3992   71.3050   -9.3557 C   0  0  1  0  0  0  0  0  0  0  0  0
   16.3855   71.0849   -8.2523 C   0  0  2  0  0  0  0  0  0  0  0  0
   18.7153   71.2789   -8.5884 C   0  0  1  0  0  0  0  0  0  0  0  0
   17.1071   70.0941   -7.3545 C   0  0  2  0  0  0  0  0  0  0  0  0
   16.5647   70.1968  -10.7609 H   0  0  0  0  0  0  0  0  0  0  0  0
   14.7399   71.2476   -9.3092 H   0  0  0  0  0  0  0  0  0  0  0  0
   16.4502   67.9285   -5.6644 O   0  0  0  0  0  0  0  0  0  0  0  0
   15.6651   70.7227   -2.0844 O   0  0  0  0  0  0  0  0  0  0  0  0
   16.7278   70.2269   -5.9762 N   0  0  0  0  0  0  0  0  0  0  0  0
   16.0600   69.3216   -3.8832 N   0  0  0  0  0  0  0  0  0  0  0  0
   16.4165   69.0760   -5.2153 C   0  0  0  0  0  0  0  0  0  0  0  0
   16.6677   71.4877   -5.3924 C   0  0  0  0  0  0  0  0  0  0  0  0
   16.3246   71.7049   -4.1210 C   0  0  0  0  0  0  0  0  0  0  0  0
   15.9844   70.5558   -3.2574 C   0  0  0  0  0  0  0  0  0  0  0  0
   15.8385   68.5347   -3.3340 H   0  0  0  0  0  0  0  0  0  0  0  0
   20.9812   73.4931   -4.8299 O   0  0  0  0  0  0  0  0  0  0  0  0
   22.1542   73.0441   -3.8124 P   0  0  2  0  0  0  0  0  0  0  0  0
   23.4784   73.7186   -4.4520 O   0  0  0  0  0  0  0  0  0  0  0  0
   22.2538   71.5606   -3.6043 O   0  0  0  0  0  0  0  0  0  0  0  0
   21.8745   73.8909   -2.4672 O   0  0  0  0  0  0  0  0  0  0  0  0
   23.2595   75.3123   -1.1718 O   0  0  0  0  0  0  0  0  0  0  0  0
   21.2201   73.4190    1.8790 O   0  0  0  0  0  0  0  0  0  0  0  0
   20.6298   76.1623    1.2676 O   0  0  0  0  0  0  0  0  0  0  0  0
   22.0176   71.9256   -0.4691 O   0  0  0  0  0  0  0  0  0  0  0  0
   21.3792   73.9973    0.5806 C   0  0  1  0  0  0  0  0  0  0  0  0
   21.7634   75.4680    0.7545 C   0  0  1  0  0  0  0  0  0  0  0  0
   22.4726   73.2414   -0.1720 C   0  0  2  0  0  0  0  0  0  0  0  0
   22.2100   76.0851   -0.5777 C   0  0  1  0  0  0  0  0  0  0  0  0
   22.8774   73.9653   -1.4573 C   0  0  1  0  0  0  0  0  0  0  0  0
   20.5269   73.8941    2.3619 H   0  0  0  0  0  0  0  0  0  0  0  0
   20.3576   75.7625    2.1086 H   0  0  0  0  0  0  0  0  0  0  0  0
   21.7646   71.4778    0.3527 H   0  0  0  0  0  0  0  0  0  0  0  0
   23.7729   77.4766    0.5756 O   0  0  0  0  0  0  0  0  0  0  0  0
   22.7468   77.5037   -0.3994 C   0  0  0  0  0  0  0  0  0  0  0  0
   24.1242   78.3728    0.6993 H   0  0  0  0  0  0  0  0  0  0  0  0
 25 28  1  0
 25 24  1  0
 25 26  1  6
 25 27  2  0
  1  4  1  0
  1 24  1  0
  1  2  1  1
  1  3  2  0
  6 11  1  0
  6 12  1  0
 29 36  1  0
 29 37  1  0
  9  7  1  6
  7 13  1  0
 10  8  1  6
  8 14  1  0
 37 28  1  6
  4  5  1  0
 33 30  1  1
 30 38  1  0
 34 31  1  6
 31 39  1  0
 35 32  1  6
 32 40  1  0
 41 42  1  0
 41 43  1  0
 15 19  2  0
 16 22  2  0
 12 17  1  1
 17 19  1  0
 17 20  1  0
 18 19  1  0
 18 22  1  0
 18 23  1  0
  9 10  1  0
  9 11  1  0
 10 12  1  0
 11  5  1  1
 33 34  1  0
 33 35  1  0
 34 36  1  0
 35 37  1  0
 36 42  1  1
 20 21  2  0
 21 22  1  0
M  CHG  2   2  -1  26  -1
M  END
>  <COMPND>  (94) 
    8629 

>  <AUTHOR>  (94) 
    GENERATED BY OPEN BABEL 3.1.1

>  <MASTER>  (94) 
        0    0    0    0    0    0    0    0   58    0   58    0

>  <minimizedAffinity>  (94) 
-7.41210

>  <CNNscore>  (94) 
0.3538042605

>  <CNNaffinity>  (94) 
4.1311202049

>  <CNN_VS>  (94) 
1.4616079330

>  <CNNaffinity_variance>  (94) 
0.1872189343

$$$$
95
     RDKit          3D

 43 45  0  0  0  0  0  0  0  0999 V2000
   21.5231   74.0554   -6.3743 P   0  0  2  0  0  0  0  0  0  0  0  0
   20.0137   74.4392   -5.9365 O   0  0  0  0  0  0  0  0  0  0  0  0
   22.3707   75.2142   -6.8103 O   0  0  0  0  0  0  0  0  0  0  0  0
   21.3233   72.8802   -7.4684 O   0  0  0  0  0  0  0  0  0  0  0  0
   20.0797   72.7874   -8.1414 C   0  0  0  0  0  0  0  0  0  0  0  0
   18.1254   71.5466   -7.4972 O   0  0  0  0  0  0  0  0  0  0  0  0
   19.4274   69.1805   -8.8000 O   0  0  0  0  0  0  0  0  0  0  0  0
   17.6298   69.9836  -10.6869 O   0  0  0  0  0  0  0  0  0  0  0  0
   19.4568   70.5533   -9.1873 C   0  0  1  0  0  0  0  0  0  0  0  0
   18.1288   70.9574   -9.7927 C   0  0  2  0  0  0  0  0  0  0  0  0
   19.4986   71.3977   -7.9198 C   0  0  1  0  0  0  0  0  0  0  0  0
   17.2567   71.1201   -8.5594 C   0  0  2  0  0  0  0  0  0  0  0  0
   19.4009   68.6215   -9.5929 H   0  0  0  0  0  0  0  0  0  0  0  0
   18.2189   69.9173  -11.4546 H   0  0  0  0  0  0  0  0  0  0  0  0
   14.4883   70.5695   -8.4562 O   0  0  0  0  0  0  0  0  0  0  0  0
   13.3963   74.9709   -9.2790 O   0  0  0  0  0  0  0  0  0  0  0  0
   16.2267   72.1034   -8.7427 N   0  0  0  0  0  0  0  0  0  0  0  0
   13.9468   72.7616   -8.8658 N   0  0  0  0  0  0  0  0  0  0  0  0
   14.8664   71.7228   -8.6725 C   0  0  0  0  0  0  0  0  0  0  0  0
   16.5696   73.4285   -8.9887 C   0  0  0  0  0  0  0  0  0  0  0  0
   15.6806   74.4069   -9.1721 C   0  0  0  0  0  0  0  0  0  0  0  0
   14.2382   74.0935   -9.1144 C   0  0  0  0  0  0  0  0  0  0  0  0
   12.9932   72.5199   -8.8216 H   0  0  0  0  0  0  0  0  0  0  0  0
   22.0844   73.2591   -5.0844 O   0  0  0  0  0  0  0  0  0  0  0  0
   21.3114   72.4576   -3.9126 P   0  0  2  0  0  0  0  0  0  0  0  0
   22.4189   71.3977   -3.3952 O   0  0  0  0  0  0  0  0  0  0  0  0
   20.0142   71.8370   -4.3439 O   0  0  0  0  0  0  0  0  0  0  0  0
   21.1749   73.5246   -2.7093 O   0  0  0  0  0  0  0  0  0  0  0  0
   22.5482   75.2559   -1.8530 O   0  0  0  0  0  0  0  0  0  0  0  0
   21.3471   73.5442    1.7077 O   0  0  0  0  0  0  0  0  0  0  0  0
   20.2823   76.0958    0.9307 O   0  0  0  0  0  0  0  0  0  0  0  0
   21.9320   71.8652   -0.5766 O   0  0  0  0  0  0  0  0  0  0  0  0
   21.1989   73.9646    0.3488 C   0  0  1  0  0  0  0  0  0  0  0  0
   21.3972   75.4806    0.2914 C   0  0  1  0  0  0  0  0  0  0  0  0
   22.2422   73.2529   -0.5105 C   0  0  2  0  0  0  0  0  0  0  0  0
   21.5182   75.9689   -1.1584 C   0  0  1  0  0  0  0  0  0  0  0  0
   22.3155   73.8475   -1.9180 C   0  0  1  0  0  0  0  0  0  0  0  0
   20.6872   73.9921    2.2586 H   0  0  0  0  0  0  0  0  0  0  0  0
   20.2169   75.7786    1.8452 H   0  0  0  0  0  0  0  0  0  0  0  0
   21.8888   71.5005    0.3206 H   0  0  0  0  0  0  0  0  0  0  0  0
   22.4986   77.8274   -0.0210 O   0  0  0  0  0  0  0  0  0  0  0  0
   21.8734   77.4522   -1.2346 C   0  0  0  0  0  0  0  0  0  0  0  0
   22.7305   78.7691   -0.0552 H   0  0  0  0  0  0  0  0  0  0  0  0
 25 28  1  0
 25 24  1  0
 25 26  1  1
 25 27  2  0
  1  4  1  0
  1 24  1  0
  1  2  1  1
  1  3  2  0
  6 11  1  0
  6 12  1  0
 29 36  1  0
 29 37  1  0
  9  7  1  1
  7 13  1  0
 10  8  1  6
  8 14  1  0
 37 28  1  1
  4  5  1  0
 33 30  1  1
 30 38  1  0
 34 31  1  6
 31 39  1  0
 35 32  1  6
 32 40  1  0
 41 42  1  0
 41 43  1  0
 15 19  2  0
 16 22  2  0
 12 17  1  6
 17 19  1  0
 17 20  1  0
 18 19  1  0
 18 22  1  0
 18 23  1  0
  9 10  1  0
  9 11  1  0
 10 12  1  0
 11  5  1  6
 33 34  1  0
 33 35  1  0
 34 36  1  0
 35 37  1  0
 36 42  1  1
 20 21  2  0
 21 22  1  0
M  CHG  2   2  -1  26  -1
M  END
>  <COMPND>  (95) 
    8629 

>  <AUTHOR>  (95) 
    GENERATED BY OPEN BABEL 3.1.1

>  <MASTER>  (95) 
        0    0    0    0    0    0    0    0   58    0   58    0

>  <minimizedAffinity>  (95) 
-6.87911

>  <CNNscore>  (95) 
0.3465583026

>  <CNNaffinity>  (95) 
3.9660720825

>  <CNN_VS>  (95) 
1.3744752407

>  <CNNaffinity_variance>  (95) 
0.0906880274

$$$$
96
     RDKit          3D

 43 45  0  0  0  0  0  0  0  0999 V2000
   15.3846   71.0772   -3.7595 P   0  0  2  0  0  0  0  0  0  0  0  0
   14.4162   69.8002   -3.5383 O   0  0  0  0  0  0  0  0  0  0  0  0
   15.6762   71.8734   -2.5216 O   0  0  0  0  0  0  0  0  0  0  0  0
   14.6838   71.8911   -4.9696 O   0  0  0  0  0  0  0  0  0  0  0  0
   15.4853   72.7543   -5.7572 C   0  0  0  0  0  0  0  0  0  0  0  0
   16.2635   73.0991   -8.0042 O   0  0  0  0  0  0  0  0  0  0  0  0
   14.5024   70.7957   -8.7682 O   0  0  0  0  0  0  0  0  0  0  0  0
   16.9735   69.6468   -8.6677 O   0  0  0  0  0  0  0  0  0  0  0  0
   15.2658   70.9921   -7.5791 C   0  0  1  0  0  0  0  0  0  0  0  0
   16.7391   70.7819   -7.8594 C   0  0  2  0  0  0  0  0  0  0  0  0
   15.2168   72.4742   -7.2294 C   0  0  1  0  0  0  0  0  0  0  0  0
   17.1166   72.0805   -8.5516 C   0  0  2  0  0  0  0  0  0  0  0  0
   14.5186   69.8562   -9.0112 H   0  0  0  0  0  0  0  0  0  0  0  0
   16.7178   68.8463   -8.1833 H   0  0  0  0  0  0  0  0  0  0  0  0
   19.3003   71.1186  -10.0629 O   0  0  0  0  0  0  0  0  0  0  0  0
   22.3265   73.5496   -7.5783 O   0  0  0  0  0  0  0  0  0  0  0  0
   18.4859   72.4459   -8.3216 N   0  0  0  0  0  0  0  0  0  0  0  0
   20.8053   72.3300   -8.8246 N   0  0  0  0  0  0  0  0  0  0  0  0
   19.5075   71.9055   -9.1369 C   0  0  0  0  0  0  0  0  0  0  0  0
   18.8042   73.3310   -7.2974 C   0  0  0  0  0  0  0  0  0  0  0  0
   20.0471   73.7247   -7.0117 C   0  0  0  0  0  0  0  0  0  0  0  0
   21.1725   73.2067   -7.8161 C   0  0  0  0  0  0  0  0  0  0  0  0
   21.5334   71.9662   -9.3791 H   0  0  0  0  0  0  0  0  0  0  0  0
   16.6866   70.4282   -4.4642 O   0  0  0  0  0  0  0  0  0  0  0  0
   18.2097   70.2760   -3.9449 P   0  0  2  0  0  0  0  0  0  0  0  0
   18.9478   69.5269   -5.1744 O   0  0  0  0  0  0  0  0  0  0  0  0
   18.3423   69.5756   -2.6237 O   0  0  0  0  0  0  0  0  0  0  0  0
   18.8012   71.7776   -3.9683 O   0  0  0  0  0  0  0  0  0  0  0  0
   20.2107   71.9226   -2.0686 O   0  0  0  0  0  0  0  0  0  0  0  0
   20.7010   75.7467   -3.5474 O   0  0  0  0  0  0  0  0  0  0  0  0
   22.8430   73.8486   -3.7864 O   0  0  0  0  0  0  0  0  0  0  0  0
   18.1017   74.4776   -3.6591 O   0  0  0  0  0  0  0  0  0  0  0  0
   20.5057   74.3324   -3.6312 C   0  0  1  0  0  0  0  0  0  0  0  0
   21.6977   73.6433   -2.9639 C   0  0  1  0  0  0  0  0  0  0  0  0
   19.2049   73.9650   -2.9197 C   0  0  2  0  0  0  0  0  0  0  0  0
   21.4363   72.1428   -2.7765 C   0  0  1  0  0  0  0  0  0  0  0  0
   19.0665   72.4521   -2.7412 C   0  0  1  0  0  0  0  0  0  0  0  0
   21.5251   75.9866   -3.9977 H   0  0  0  0  0  0  0  0  0  0  0  0
   22.9967   74.8000   -3.8972 H   0  0  0  0  0  0  0  0  0  0  0  0
   18.2009   75.4361   -3.7650 H   0  0  0  0  0  0  0  0  0  0  0  0
   21.9879   70.3599   -1.2845 O   0  0  0  0  0  0  0  0  0  0  0  0
   22.5438   71.4654   -1.9723 C   0  0  0  0  0  0  0  0  0  0  0  0
   22.6815   69.9189   -0.7685 H   0  0  0  0  0  0  0  0  0  0  0  0
 25 28  1  0
 25 24  1  0
 25 26  1  6
 25 27  2  0
  1  4  1  0
  1 24  1  0
  1  2  1  1
  1  3  2  0
  6 11  1  0
  6 12  1  0
 29 36  1  0
 29 37  1  0
  9  7  1  6
  7 13  1  0
 10  8  1  6
  8 14  1  0
 37 28  1  6
  4  5  1  0
 33 30  1  1
 30 38  1  0
 34 31  1  6
 31 39  1  0
 35 32  1  6
 32 40  1  0
 41 42  1  0
 41 43  1  0
 15 19  2  0
 16 22  2  0
 12 17  1  1
 17 19  1  0
 17 20  1  0
 18 19  1  0
 18 22  1  0
 18 23  1  0
  9 10  1  0
  9 11  1  0
 10 12  1  0
 11  5  1  1
 33 34  1  0
 33 35  1  0
 34 36  1  0
 35 37  1  0
 36 42  1  1
 20 21  2  0
 21 22  1  0
M  CHG  2   2  -1  26  -1
M  END
>  <COMPND>  (96) 
    8629 

>  <AUTHOR>  (96) 
    GENERATED BY OPEN BABEL 3.1.1

>  <MASTER>  (96) 
        0    0    0    0    0    0    0    0   58    0   58    0

>  <minimizedAffinity>  (96) 
-7.36756

>  <CNNscore>  (96) 
0.3443166018

>  <CNNaffinity>  (96) 
4.0133366585

>  <CNN_VS>  (96) 
1.3818584681

>  <CNNaffinity_variance>  (96) 
0.5360051394

$$$$
97
     RDKit          3D

 43 45  0  0  0  0  0  0  0  0999 V2000
   20.6414   73.4954   -7.0779 P   0  0  2  0  0  0  0  0  0  0  0  0
   19.9558   74.6548   -7.9740 O   0  0  0  0  0  0  0  0  0  0  0  0
   22.1410   73.4667   -7.1180 O   0  0  0  0  0  0  0  0  0  0  0  0
   19.8995   72.1412   -7.5613 O   0  0  0  0  0  0  0  0  0  0  0  0
   19.1221   72.1819   -8.7453 C   0  0  0  0  0  0  0  0  0  0  0  0
   18.4367   70.0932   -7.7750 O   0  0  0  0  0  0  0  0  0  0  0  0
   17.0313   69.5633  -10.3701 O   0  0  0  0  0  0  0  0  0  0  0  0
   14.9942   70.3644   -8.7437 O   0  0  0  0  0  0  0  0  0  0  0  0
   17.2002   70.7953   -9.6708 C   0  0  1  0  0  0  0  0  0  0  0  0
   16.2938   70.8401   -8.4583 C   0  0  2  0  0  0  0  0  0  0  0  0
   18.5840   70.7870   -9.0333 C   0  0  1  0  0  0  0  0  0  0  0  0
   17.0384   69.9527   -7.4753 C   0  0  2  0  0  0  0  0  0  0  0  0
   16.1545   69.5454  -10.7861 H   0  0  0  0  0  0  0  0  0  0  0  0
   14.5618   70.9625   -9.3730 H   0  0  0  0  0  0  0  0  0  0  0  0
   16.4180   68.1507   -5.3907 O   0  0  0  0  0  0  0  0  0  0  0  0
   16.1930   71.5426   -2.2785 O   0  0  0  0  0  0  0  0  0  0  0  0
   16.8130   70.3376   -6.1106 N   0  0  0  0  0  0  0  0  0  0  0  0
   16.3066   69.8410   -3.8427 N   0  0  0  0  0  0  0  0  0  0  0  0
   16.5067   69.3546   -5.1409 C   0  0  0  0  0  0  0  0  0  0  0  0
   16.8969   71.6768   -5.7454 C   0  0  0  0  0  0  0  0  0  0  0  0
   16.7021   72.1245   -4.5033 C   0  0  0  0  0  0  0  0  0  0  0  0
   16.3778   71.1623   -3.4305 C   0  0  0  0  0  0  0  0  0  0  0  0
   16.0917   69.1743   -3.1505 H   0  0  0  0  0  0  0  0  0  0  0  0
   20.0124   73.7502   -5.6108 O   0  0  0  0  0  0  0  0  0  0  0  0
   20.1239   75.0175   -4.6135 P   0  0  2  0  0  0  0  0  0  0  0  0
   18.5899   75.2764   -4.1695 O   0  0  0  0  0  0  0  0  0  0  0  0
   20.8057   76.2136   -5.2122 O   0  0  0  0  0  0  0  0  0  0  0  0
   20.8385   74.4336   -3.2893 O   0  0  0  0  0  0  0  0  0  0  0  0
   19.5010   72.6615   -2.4601 O   0  0  0  0  0  0  0  0  0  0  0  0
   22.3557   72.7842    0.5209 O   0  0  0  0  0  0  0  0  0  0  0  0
   22.3589   70.6111   -1.3567 O   0  0  0  0  0  0  0  0  0  0  0  0
   21.3963   75.2460   -0.6618 O   0  0  0  0  0  0  0  0  0  0  0  0
   21.8652   72.8887   -0.8184 C   0  0  1  0  0  0  0  0  0  0  0  0
   21.2812   71.5334   -1.2223 C   0  0  1  0  0  0  0  0  0  0  0  0
   20.7922   73.9745   -0.8738 C   0  0  2  0  0  0  0  0  0  0  0  0
   20.4993   71.6373   -2.5387 C   0  0  1  0  0  0  0  0  0  0  0  0
   20.0418   73.9596   -2.2067 C   0  0  1  0  0  0  0  0  0  0  0  0
   23.0377   72.0968    0.5628 H   0  0  0  0  0  0  0  0  0  0  0  0
   22.8447   70.5552   -0.5188 H   0  0  0  0  0  0  0  0  0  0  0  0
   21.8678   75.2426    0.1853 H   0  0  0  0  0  0  0  0  0  0  0  0
   20.7456   69.3572   -3.2091 O   0  0  0  0  0  0  0  0  0  0  0  0
   19.7770   70.3355   -2.8791 C   0  0  0  0  0  0  0  0  0  0  0  0
   20.3004   68.5231   -3.4277 H   0  0  0  0  0  0  0  0  0  0  0  0
 25 28  1  0
 25 24  1  0
 25 26  1  1
 25 27  2  0
  1  4  1  0
  1 24  1  0
  1  2  1  6
  1  3  2  0
  6 11  1  0
  6 12  1  0
 29 36  1  0
 29 37  1  0
  9  7  1  1
  7 13  1  0
 10  8  1  6
  8 14  1  0
 37 28  1  6
  4  5  1  0
 33 30  1  1
 30 38  1  0
 34 31  1  6
 31 39  1  0
 35 32  1  6
 32 40  1  0
 41 42  1  0
 41 43  1  0
 15 19  2  0
 16 22  2  0
 12 17  1  1
 17 19  1  0
 17 20  1  0
 18 19  1  0
 18 22  1  0
 18 23  1  0
  9 10  1  0
  9 11  1  0
 10 12  1  0
 11  5  1  1
 33 34  1  0
 33 35  1  0
 34 36  1  0
 35 37  1  0
 36 42  1  1
 20 21  2  0
 21 22  1  0
M  CHG  2   2  -1  26  -1
M  END
>  <COMPND>  (97) 
    8629 

>  <AUTHOR>  (97) 
    GENERATED BY OPEN BABEL 3.1.1

>  <MASTER>  (97) 
        0    0    0    0    0    0    0    0   58    0   58    0

>  <minimizedAffinity>  (97) 
-7.31517

>  <CNNscore>  (97) 
0.3396889865

>  <CNNaffinity>  (97) 
3.9792873859

>  <CNN_VS>  (97) 
1.3517200947

>  <CNNaffinity_variance>  (97) 
0.6688092351

$$$$
98
     RDKit          3D

 43 45  0  0  0  0  0  0  0  0999 V2000
   18.6653   73.7591   -7.7466 P   0  0  2  0  0  0  0  0  0  0  0  0
   17.8203   73.6431   -6.3718 O   0  0  0  0  0  0  0  0  0  0  0  0
   17.9392   74.4164   -8.8833 O   0  0  0  0  0  0  0  0  0  0  0  0
   19.1742   72.2474   -8.0184 O   0  0  0  0  0  0  0  0  0  0  0  0
   18.7911   71.2311   -7.1083 C   0  0  0  0  0  0  0  0  0  0  0  0
   17.3551   69.3145   -6.9126 O   0  0  0  0  0  0  0  0  0  0  0  0
   16.7868   69.6757   -9.8345 O   0  0  0  0  0  0  0  0  0  0  0  0
   14.5815   70.7689   -8.6605 O   0  0  0  0  0  0  0  0  0  0  0  0
   17.0047   70.6639   -8.8289 C   0  0  1  0  0  0  0  0  0  0  0  0
   15.7911   70.7759   -7.9299 C   0  0  2  0  0  0  0  0  0  0  0  0
   18.0628   70.1323   -7.8701 C   0  0  1  0  0  0  0  0  0  0  0  0
   15.9440   69.5538   -7.0405 C   0  0  2  0  0  0  0  0  0  0  0  0
   16.1149   69.9928  -10.4590 H   0  0  0  0  0  0  0  0  0  0  0  0
   14.5313   71.5661   -9.2106 H   0  0  0  0  0  0  0  0  0  0  0  0
   14.8877   67.4928   -5.4235 O   0  0  0  0  0  0  0  0  0  0  0  0
   13.8232   70.4401   -2.0439 O   0  0  0  0  0  0  0  0  0  0  0  0
   15.3847   69.7542   -5.7334 N   0  0  0  0  0  0  0  0  0  0  0  0
   14.3587   68.9620   -3.7419 N   0  0  0  0  0  0  0  0  0  0  0  0
   14.8801   68.6522   -5.0045 C   0  0  0  0  0  0  0  0  0  0  0  0
   15.3408   71.0323   -5.1870 C   0  0  0  0  0  0  0  0  0  0  0  0
   14.8391   71.3111   -3.9821 C   0  0  0  0  0  0  0  0  0  0  0  0
   14.2916   70.2160   -3.1557 C   0  0  0  0  0  0  0  0  0  0  0  0
   14.0011   68.2100   -3.2161 H   0  0  0  0  0  0  0  0  0  0  0  0
   20.0143   74.5184   -7.2811 O   0  0  0  0  0  0  0  0  0  0  0  0
   21.5138   73.9656   -7.0387 P   0  0  2  0  0  0  0  0  0  0  0  0
   22.3039   75.2655   -6.4878 O   0  0  0  0  0  0  0  0  0  0  0  0
   22.1373   73.3277   -8.2463 O   0  0  0  0  0  0  0  0  0  0  0  0
   21.3881   72.9918   -5.7577 O   0  0  0  0  0  0  0  0  0  0  0  0
   20.0510   73.2327   -3.8159 O   0  0  0  0  0  0  0  0  0  0  0  0
   23.3637   71.4452   -2.1183 O   0  0  0  0  0  0  0  0  0  0  0  0
   20.9384   69.9374   -2.4221 O   0  0  0  0  0  0  0  0  0  0  0  0
   23.6994   73.4061   -4.2211 O   0  0  0  0  0  0  0  0  0  0  0  0
   22.3972   71.6902   -3.1436 C   0  0  1  0  0  0  0  0  0  0  0  0
   21.0125   71.3506   -2.5884 C   0  0  1  0  0  0  0  0  0  0  0  0
   22.4663   73.1600   -3.5538 C   0  0  2  0  0  0  0  0  0  0  0  0
   19.9033   71.8367   -3.5309 C   0  0  1  0  0  0  0  0  0  0  0  0
   21.2907   73.5519   -4.4508 C   0  0  1  0  0  0  0  0  0  0  0  0
   23.3253   70.5136   -1.8536 H   0  0  0  0  0  0  0  0  0  0  0  0
   21.6444   69.6433   -1.8253 H   0  0  0  0  0  0  0  0  0  0  0  0
   24.4357   73.1543   -3.6428 H   0  0  0  0  0  0  0  0  0  0  0  0
   18.1257   70.2998   -3.0985 O   0  0  0  0  0  0  0  0  0  0  0  0
   18.5145   71.6499   -2.9239 C   0  0  0  0  0  0  0  0  0  0  0  0
   17.2436   70.1660   -2.7166 H   0  0  0  0  0  0  0  0  0  0  0  0
 25 28  1  0
 25 24  1  0
 25 26  1  1
 25 27  2  0
  1  4  1  0
  1 24  1  0
  1  2  1  1
  1  3  2  0
  6 11  1  0
  6 12  1  0
 29 36  1  0
 29 37  1  0
  9  7  1  6
  7 13  1  0
 10  8  1  6
  8 14  1  0
 37 28  1  6
  4  5  1  0
 33 30  1  1
 30 38  1  0
 34 31  1  6
 31 39  1  0
 35 32  1  6
 32 40  1  0
 41 42  1  0
 41 43  1  0
 15 19  2  0
 16 22  2  0
 12 17  1  1
 17 19  1  0
 17 20  1  0
 18 19  1  0
 18 22  1  0
 18 23  1  0
  9 10  1  0
  9 11  1  0
 10 12  1  0
 11  5  1  1
 33 34  1  0
 33 35  1  0
 34 36  1  0
 35 37  1  0
 36 42  1  1
 20 21  2  0
 21 22  1  0
M  CHG  2   2  -1  26  -1
M  END
>  <COMPND>  (98) 
    8629 

>  <AUTHOR>  (98) 
    GENERATED BY OPEN BABEL 3.1.1

>  <MASTER>  (98) 
        0    0    0    0    0    0    0    0   58    0   58    0

>  <minimizedAffinity>  (98) 
-7.72440

>  <CNNscore>  (98) 
0.3378474116

>  <CNNaffinity>  (98) 
4.1120252609

>  <CNN_VS>  (98) 
1.3892370462

>  <CNNaffinity_variance>  (98) 
0.3646758497

$$$$
99
     RDKit          3D

 43 45  0  0  0  0  0  0  0  0999 V2000
   21.0070   73.3400   -5.0076 P   0  0  2  0  0  0  0  0  0  0  0  0
   20.4357   74.6676   -4.2807 O   0  0  0  0  0  0  0  0  0  0  0  0
   22.3496   73.5014   -5.6579 O   0  0  0  0  0  0  0  0  0  0  0  0
   19.8022   72.8843   -5.9868 O   0  0  0  0  0  0  0  0  0  0  0  0
   19.9854   73.0072   -7.3865 C   0  0  0  0  0  0  0  0  0  0  0  0
   18.3933   71.2075   -7.4023 O   0  0  0  0  0  0  0  0  0  0  0  0
   19.3886   70.6002  -10.1647 O   0  0  0  0  0  0  0  0  0  0  0  0
   17.0631   71.9387  -10.6517 O   0  0  0  0  0  0  0  0  0  0  0  0
   19.2165   71.8639   -9.5253 C   0  0  1  0  0  0  0  0  0  0  0  0
   17.7459   72.2172   -9.4463 C   0  0  2  0  0  0  0  0  0  0  0  0
   19.5836   71.7000   -8.0557 C   0  0  1  0  0  0  0  0  0  0  0  0
   17.2745   71.3478   -8.2930 C   0  0  2  0  0  0  0  0  0  0  0  0
   19.1604   70.6799  -11.1047 H   0  0  0  0  0  0  0  0  0  0  0  0
   17.3985   72.5170  -11.3545 H   0  0  0  0  0  0  0  0  0  0  0  0
   14.6194   70.3871   -8.3678 O   0  0  0  0  0  0  0  0  0  0  0  0
   13.1513   73.6856   -5.5032 O   0  0  0  0  0  0  0  0  0  0  0  0
   16.1785   71.9362   -7.5761 N   0  0  0  0  0  0  0  0  0  0  0  0
   13.8906   72.0302   -6.9413 N   0  0  0  0  0  0  0  0  0  0  0  0
   14.8837   71.3772   -7.6825 C   0  0  0  0  0  0  0  0  0  0  0  0
   16.3932   73.0546   -6.7780 C   0  0  0  0  0  0  0  0  0  0  0  0
   15.4352   73.6663   -6.0785 C   0  0  0  0  0  0  0  0  0  0  0  0
   14.0541   73.1454   -6.1348 C   0  0  0  0  0  0  0  0  0  0  0  0
   12.9805   71.6586   -7.0003 H   0  0  0  0  0  0  0  0  0  0  0  0
   20.9580   72.2321   -3.8314 O   0  0  0  0  0  0  0  0  0  0  0  0
   20.3627   72.3032   -2.3303 P   0  0  2  0  0  0  0  0  0  0  0  0
   20.9198   70.9473   -1.6456 O   0  0  0  0  0  0  0  0  0  0  0  0
   18.8711   72.4613   -2.2667 O   0  0  0  0  0  0  0  0  0  0  0  0
   21.1921   73.4903   -1.6177 O   0  0  0  0  0  0  0  0  0  0  0  0
   23.3937   73.9468   -2.3667 O   0  0  0  0  0  0  0  0  0  0  0  0
   23.5740   75.7441    1.3466 O   0  0  0  0  0  0  0  0  0  0  0  0
   23.4725   77.3754   -1.0149 O   0  0  0  0  0  0  0  0  0  0  0  0
   22.1335   73.2552    1.0155 O   0  0  0  0  0  0  0  0  0  0  0  0
   22.9521   75.3378    0.1245 C   0  0  1  0  0  0  0  0  0  0  0  0
   23.7186   75.9722   -1.0378 C   0  0  1  0  0  0  0  0  0  0  0  0
   22.9918   73.8139    0.0268 C   0  0  2  0  0  0  0  0  0  0  0  0
   23.2808   75.3747   -2.3818 C   0  0  1  0  0  0  0  0  0  0  0  0
   22.5852   73.3264   -1.3650 C   0  0  1  0  0  0  0  0  0  0  0  0
   23.5517   76.7107    1.4150 H   0  0  0  0  0  0  0  0  0  0  0  0
   23.7528   77.7402   -0.1608 H   0  0  0  0  0  0  0  0  0  0  0  0
   22.4015   73.5712    1.8920 H   0  0  0  0  0  0  0  0  0  0  0  0
   24.6279   74.7590   -4.2567 O   0  0  0  0  0  0  0  0  0  0  0  0
   24.1412   75.8779   -3.5388 C   0  0  0  0  0  0  0  0  0  0  0  0
   25.1770   75.0641   -4.9964 H   0  0  0  0  0  0  0  0  0  0  0  0
 25 28  1  0
 25 24  1  0
 25 26  1  1
 25 27  2  0
  1  4  1  0
  1 24  1  0
  1  2  1  1
  1  3  2  0
  6 11  1  0
  6 12  1  0
 29 36  1  0
 29 37  1  0
  9  7  1  6
  7 13  1  0
 10  8  1  6
  8 14  1  0
 37 28  1  6
  4  5  1  0
 33 30  1  1
 30 38  1  0
 34 31  1  6
 31 39  1  0
 35 32  1  1
 32 40  1  0
 41 42  1  0
 41 43  1  0
 15 19  2  0
 16 22  2  0
 12 17  1  1
 17 19  1  0
 17 20  1  0
 18 19  1  0
 18 22  1  0
 18 23  1  0
  9 10  1  0
  9 11  1  0
 10 12  1  0
 11  5  1  1
 33 34  1  0
 33 35  1  0
 34 36  1  0
 35 37  1  0
 36 42  1  6
 20 21  2  0
 21 22  1  0
M  CHG  2   2  -1  26  -1
M  END
>  <COMPND>  (99) 
    8629 

>  <AUTHOR>  (99) 
    GENERATED BY OPEN BABEL 3.1.1

>  <MASTER>  (99) 
        0    0    0    0    0    0    0    0   58    0   58    0

>  <minimizedAffinity>  (99) 
-6.59652

>  <CNNscore>  (99) 
0.3296342194

>  <CNNaffinity>  (99) 
4.0483179092

>  <CNN_VS>  (99) 
1.3344640732

>  <CNNaffinity_variance>  (99) 
0.0335153714

$$$$
100
     RDKit          3D

 43 45  0  0  0  0  0  0  0  0999 V2000
   21.6498   73.0937   -4.2287 P   0  0  2  0  0  0  0  0  0  0  0  0
   20.8402   74.4302   -3.8094 O   0  0  0  0  0  0  0  0  0  0  0  0
   22.5944   73.2608   -5.3825 O   0  0  0  0  0  0  0  0  0  0  0  0
   20.4902   71.9826   -4.4252 O   0  0  0  0  0  0  0  0  0  0  0  0
   19.2427   72.3940   -4.9564 C   0  0  0  0  0  0  0  0  0  0  0  0
   18.5133   70.7916   -6.5916 O   0  0  0  0  0  0  0  0  0  0  0  0
   18.8638   72.9764   -8.6151 O   0  0  0  0  0  0  0  0  0  0  0  0
   16.1678   72.9731   -8.2049 O   0  0  0  0  0  0  0  0  0  0  0  0
   18.4086   73.0611   -7.2656 C   0  0  1  0  0  0  0  0  0  0  0  0
   16.9969   72.5245   -7.1523 C   0  0  2  0  0  0  0  0  0  0  0  0
   19.1990   72.0538   -6.4398 C   0  0  1  0  0  0  0  0  0  0  0  0
   17.2266   71.0232   -7.1881 C   0  0  2  0  0  0  0  0  0  0  0  0
   18.3736   73.6110   -9.1619 H   0  0  0  0  0  0  0  0  0  0  0  0
   16.0519   73.9338   -8.1385 H   0  0  0  0  0  0  0  0  0  0  0  0
   14.6610   70.3735   -8.1747 O   0  0  0  0  0  0  0  0  0  0  0  0
   13.4934   68.2435   -4.2579 O   0  0  0  0  0  0  0  0  0  0  0  0
   16.2322   70.2991   -6.4476 N   0  0  0  0  0  0  0  0  0  0  0  0
   14.0818   69.3133   -6.2237 N   0  0  0  0  0  0  0  0  0  0  0  0
   14.9749   70.0254   -7.0346 C   0  0  0  0  0  0  0  0  0  0  0  0
   16.5083   69.8683   -5.1545 C   0  0  0  0  0  0  0  0  0  0  0  0
   15.6453   69.1915   -4.3940 C   0  0  0  0  0  0  0  0  0  0  0  0
   14.3091   68.8645   -4.9323 C   0  0  0  0  0  0  0  0  0  0  0  0
   13.1994   69.1114   -6.6115 H   0  0  0  0  0  0  0  0  0  0  0  0
   22.3522   72.6448   -2.8437 O   0  0  0  0  0  0  0  0  0  0  0  0
   21.7205   72.2966   -1.3972 P   0  0  2  0  0  0  0  0  0  0  0  0
   21.9717   70.7046   -1.2560 O   0  0  0  0  0  0  0  0  0  0  0  0
   20.2876   72.7142   -1.2348 O   0  0  0  0  0  0  0  0  0  0  0  0
   22.7363   72.9652   -0.3361 O   0  0  0  0  0  0  0  0  0  0  0  0
   22.9446   73.9974    1.7871 O   0  0  0  0  0  0  0  0  0  0  0  0
   23.8396   77.2369   -0.6121 O   0  0  0  0  0  0  0  0  0  0  0  0
   25.9322   75.9584    0.8827 O   0  0  0  0  0  0  0  0  0  0  0  0
   21.7767   75.3715   -1.4150 O   0  0  0  0  0  0  0  0  0  0  0  0
   23.8229   75.8559   -0.2403 C   0  0  1  0  0  0  0  0  0  0  0  0
   24.5459   75.7115    1.1003 C   0  0  1  0  0  0  0  0  0  0  0  0
   22.3735   75.3882   -0.1227 C   0  0  2  0  0  0  0  0  0  0  0  0
   24.3391   74.3111    1.6931 C   0  0  1  0  0  0  0  0  0  0  0  0
   22.2771   74.0050    0.5237 C   0  0  1  0  0  0  0  0  0  0  0  0
   24.7570   77.5400   -0.6889 H   0  0  0  0  0  0  0  0  0  0  0  0
   26.0489   76.8455    0.5078 H   0  0  0  0  0  0  0  0  0  0  0  0
   21.8439   76.2528   -1.8135 H   0  0  0  0  0  0  0  0  0  0  0  0
   23.8670   73.8783    3.9950 O   0  0  0  0  0  0  0  0  0  0  0  0
   24.9184   74.1949    3.1013 C   0  0  0  0  0  0  0  0  0  0  0  0
   24.2210   73.8009    4.8952 H   0  0  0  0  0  0  0  0  0  0  0  0
 25 28  1  0
 25 24  1  0
 25 26  1  1
 25 27  2  0
  1  4  1  0
  1 24  1  0
  1  2  1  1
  1  3  2  0
  6 11  1  0
  6 12  1  0
 29 36  1  0
 29 37  1  0
  9  7  1  6
  7 13  1  0
 10  8  1  6
  8 14  1  0
 37 28  1  6
  4  5  1  0
 33 30  1  1
 30 38  1  0
 34 31  1  6
 31 39  1  0
 35 32  1  6
 32 40  1  0
 41 42  1  0
 41 43  1  0
 15 19  2  0
 16 22  2  0
 12 17  1  1
 17 19  1  0
 17 20  1  0
 18 19  1  0
 18 22  1  0
 18 23  1  0
  9 10  1  0
  9 11  1  0
 10 12  1  0
 11  5  1  1
 33 34  1  0
 33 35  1  0
 34 36  1  0
 35 37  1  0
 36 42  1  1
 20 21  2  0
 21 22  1  0
M  CHG  2   2  -1  26  -1
M  END
>  <COMPND>  (100) 
    8629 

>  <AUTHOR>  (100) 
    GENERATED BY OPEN BABEL 3.1.1

>  <MASTER>  (100) 
        0    0    0    0    0    0    0    0   58    0   58    0

>  <minimizedAffinity>  (100) 
-7.24534

>  <CNNscore>  (100) 
0.3106433451

>  <CNNaffinity>  (100) 
4.0934805870

>  <CNN_VS>  (100) 
1.2716125250

>  <CNNaffinity_variance>  (100) 
0.0448728427

$$$$
101
     RDKit          3D

 43 45  0  0  0  0  0  0  0  0999 V2000
   18.6174   73.7029   -7.3339 P   0  0  2  0  0  0  0  0  0  0  0  0
   17.1358   74.1591   -7.7969 O   0  0  0  0  0  0  0  0  0  0  0  0
   19.6626   74.7771   -7.4058 O   0  0  0  0  0  0  0  0  0  0  0  0
   18.9093   72.3783   -8.2159 O   0  0  0  0  0  0  0  0  0  0  0  0
   19.1214   71.1502   -7.5415 C   0  0  0  0  0  0  0  0  0  0  0  0
   17.6846   69.2452   -7.2583 O   0  0  0  0  0  0  0  0  0  0  0  0
   16.9676   69.5912  -10.1491 O   0  0  0  0  0  0  0  0  0  0  0  0
   14.8338   70.7078   -8.8697 O   0  0  0  0  0  0  0  0  0  0  0  0
   17.2442   70.5844   -9.1630 C   0  0  1  0  0  0  0  0  0  0  0  0
   16.0797   70.7109   -8.2031 C   0  0  2  0  0  0  0  0  0  0  0  0
   18.3471   70.0516   -8.2568 C   0  0  1  0  0  0  0  0  0  0  0  0
   16.2704   69.4936   -7.3143 C   0  0  2  0  0  0  0  0  0  0  0  0
   16.2663   69.9091  -10.7401 H   0  0  0  0  0  0  0  0  0  0  0  0
   14.7604   71.5017   -9.4220 H   0  0  0  0  0  0  0  0  0  0  0  0
   13.6239   68.9633   -6.4820 O   0  0  0  0  0  0  0  0  0  0  0  0
   14.5054   70.3505   -2.1763 O   0  0  0  0  0  0  0  0  0  0  0  0
   15.7812   69.7066   -5.9814 N   0  0  0  0  0  0  0  0  0  0  0  0
   14.0650   69.6543   -4.3387 N   0  0  0  0  0  0  0  0  0  0  0  0
   14.4346   69.4090   -5.6673 C   0  0  0  0  0  0  0  0  0  0  0  0
   16.6332   70.2050   -5.0019 C   0  0  0  0  0  0  0  0  0  0  0  0
   16.2649   70.4345   -3.7398 C   0  0  0  0  0  0  0  0  0  0  0  0
   14.8748   70.1500   -3.3292 C   0  0  0  0  0  0  0  0  0  0  0  0
   13.1315   69.4547   -4.0969 H   0  0  0  0  0  0  0  0  0  0  0  0
   18.3675   73.1055   -5.8528 O   0  0  0  0  0  0  0  0  0  0  0  0
   18.4785   73.7978   -4.3963 P   0  0  2  0  0  0  0  0  0  0  0  0
   16.9448   73.8281   -3.8821 O   0  0  0  0  0  0  0  0  0  0  0  0
   19.1565   75.1372   -4.4016 O   0  0  0  0  0  0  0  0  0  0  0  0
   19.1970   72.6881   -3.4703 O   0  0  0  0  0  0  0  0  0  0  0  0
   21.4302   72.8041   -4.2550 O   0  0  0  0  0  0  0  0  0  0  0  0
   21.9778   70.2130   -1.0869 O   0  0  0  0  0  0  0  0  0  0  0  0
   22.9319   72.9146   -0.8902 O   0  0  0  0  0  0  0  0  0  0  0  0
   19.5963   70.0136   -2.7204 O   0  0  0  0  0  0  0  0  0  0  0  0
   21.3904   71.3171   -1.7805 C   0  0  1  0  0  0  0  0  0  0  0  0
   22.4976   72.3202   -2.1102 C   0  0  1  0  0  0  0  0  0  0  0  0
   20.7279   70.8080   -3.0593 C   0  0  2  0  0  0  0  0  0  0  0  0
   21.9974   73.3980   -3.0814 C   0  0  1  0  0  0  0  0  0  0  0  0
   20.3120   71.9591   -3.9769 C   0  0  1  0  0  0  0  0  0  0  0  0
   22.3998   70.5294   -0.2737 H   0  0  0  0  0  0  0  0  0  0  0  0
   23.2448   72.2233   -0.2857 H   0  0  0  0  0  0  0  0  0  0  0  0
   19.8728   69.2882   -2.1396 H   0  0  0  0  0  0  0  0  0  0  0  0
   23.8101   73.6829   -4.6118 O   0  0  0  0  0  0  0  0  0  0  0  0
   23.1253   74.3164   -3.5468 C   0  0  0  0  0  0  0  0  0  0  0  0
   24.5306   74.2561   -4.9184 H   0  0  0  0  0  0  0  0  0  0  0  0
 25 28  1  0
 25 24  1  0
 25 26  1  1
 25 27  2  0
  1  4  1  0
  1 24  1  0
  1  2  1  6
  1  3  2  0
  6 11  1  0
  6 12  1  0
 29 36  1  0
 29 37  1  0
  9  7  1  6
  7 13  1  0
 10  8  1  6
  8 14  1  0
 37 28  1  1
  4  5  1  0
 33 30  1  6
 30 38  1  0
 34 31  1  1
 31 39  1  0
 35 32  1  1
 32 40  1  0
 41 42  1  0
 41 43  1  0
 15 19  2  0
 16 22  2  0
 12 17  1  1
 17 19  1  0
 17 20  1  0
 18 19  1  0
 18 22  1  0
 18 23  1  0
  9 10  1  0
  9 11  1  0
 10 12  1  0
 11  5  1  1
 33 34  1  0
 33 35  1  0
 34 36  1  0
 35 37  1  0
 36 42  1  6
 20 21  2  0
 21 22  1  0
M  CHG  2   2  -1  26  -1
M  END
>  <COMPND>  (101) 
    8629 

>  <AUTHOR>  (101) 
    GENERATED BY OPEN BABEL 3.1.1

>  <MASTER>  (101) 
        0    0    0    0    0    0    0    0   58    0   58    0

>  <minimizedAffinity>  (101) 
-7.77463

>  <CNNscore>  (101) 
0.6359083652

>  <CNNaffinity>  (101) 
4.4685735703

>  <CNN_VS>  (101) 
2.8416032791

>  <CNNaffinity_variance>  (101) 
0.4330029488

$$$$
102
     RDKit          3D

 43 45  0  0  0  0  0  0  0  0999 V2000
   21.1557   71.2281   -2.0455 P   0  0  2  0  0  0  0  0  0  0  0  0
   21.6548   71.8826   -3.4383 O   0  0  0  0  0  0  0  0  0  0  0  0
   22.2376   70.6005   -1.2166 O   0  0  0  0  0  0  0  0  0  0  0  0
   19.9500   70.2443   -2.4886 O   0  0  0  0  0  0  0  0  0  0  0  0
   19.3409   70.4478   -3.7517 C   0  0  0  0  0  0  0  0  0  0  0  0
   17.4385   71.4803   -4.7951 O   0  0  0  0  0  0  0  0  0  0  0  0
   15.8410   70.4431   -2.4793 O   0  0  0  0  0  0  0  0  0  0  0  0
   15.2643   68.6489   -4.4503 O   0  0  0  0  0  0  0  0  0  0  0  0
   16.9427   69.8412   -3.1570 C   0  0  1  0  0  0  0  0  0  0  0  0
   16.5063   69.3200   -4.5103 C   0  0  2  0  0  0  0  0  0  0  0  0
   17.9180   70.9469   -3.5413 C   0  0  1  0  0  0  0  0  0  0  0  0
   16.4426   70.5954   -5.3335 C   0  0  2  0  0  0  0  0  0  0  0  0
   15.2046   69.7564   -2.2235 H   0  0  0  0  0  0  0  0  0  0  0  0
   15.3566   67.8447   -3.9159 H   0  0  0  0  0  0  0  0  0  0  0  0
   14.5263   70.7685   -7.4013 O   0  0  0  0  0  0  0  0  0  0  0  0
   17.6389   69.6913  -10.6251 O   0  0  0  0  0  0  0  0  0  0  0  0
   16.7249   70.3655   -6.7223 N   0  0  0  0  0  0  0  0  0  0  0  0
   16.0777   70.2322   -9.0048 N   0  0  0  0  0  0  0  0  0  0  0  0
   15.6910   70.4768   -7.6810 C   0  0  0  0  0  0  0  0  0  0  0  0
   18.0151   70.0341   -7.1216 C   0  0  0  0  0  0  0  0  0  0  0  0
   18.3673   69.8026   -8.3879 C   0  0  0  0  0  0  0  0  0  0  0  0
   17.3466   69.8984   -9.4514 C   0  0  0  0  0  0  0  0  0  0  0  0
   15.3740   70.3036   -9.6900 H   0  0  0  0  0  0  0  0  0  0  0  0
   20.3811   72.4511   -1.3263 O   0  0  0  0  0  0  0  0  0  0  0  0
   20.7920   74.0029   -1.1365 P   0  0  2  0  0  0  0  0  0  0  0  0
   19.3635   74.7596   -1.0708 O   0  0  0  0  0  0  0  0  0  0  0  0
   21.7222   74.5266   -2.1921 O   0  0  0  0  0  0  0  0  0  0  0  0
   21.3698   74.0914    0.3679 O   0  0  0  0  0  0  0  0  0  0  0  0
   21.3775   75.7577    2.0532 O   0  0  0  0  0  0  0  0  0  0  0  0
   25.2890   74.4743    2.3763 O   0  0  0  0  0  0  0  0  0  0  0  0
   23.3971   73.7859    4.4244 O   0  0  0  0  0  0  0  0  0  0  0  0
   24.0475   74.6802   -0.2306 O   0  0  0  0  0  0  0  0  0  0  0  0
   23.8848   74.3292    2.1467 C   0  0  1  0  0  0  0  0  0  0  0  0
   23.1447   74.7592    3.4148 C   0  0  1  0  0  0  0  0  0  0  0  0
   23.4792   75.2064    0.9638 C   0  0  2  0  0  0  0  0  0  0  0  0
   21.6367   74.8860    3.1599 C   0  0  1  0  0  0  0  0  0  0  0  0
   21.9586   75.3048    0.8288 C   0  0  1  0  0  0  0  0  0  0  0  0
   25.5532   73.9195    3.1259 H   0  0  0  0  0  0  0  0  0  0  0  0
   24.3528   73.7152    4.5753 H   0  0  0  0  0  0  0  0  0  0  0  0
   25.0103   74.6232   -0.1326 H   0  0  0  0  0  0  0  0  0  0  0  0
   20.9817   74.5358    5.4309 O   0  0  0  0  0  0  0  0  0  0  0  0
   20.8995   75.4647    4.3657 C   0  0  0  0  0  0  0  0  0  0  0  0
   20.5170   74.8910    6.2053 H   0  0  0  0  0  0  0  0  0  0  0  0
 25 28  1  0
 25 24  1  0
 25 26  1  1
 25 27  2  0
  1  4  1  0
  1 24  1  0
  1  2  1  6
  1  3  2  0
  6 11  1  0
  6 12  1  0
 29 36  1  0
 29 37  1  0
  9  7  1  6
  7 13  1  0
 10  8  1  1
  8 14  1  0
 37 28  1  1
  4  5  1  0
 33 30  1  1
 30 38  1  0
 34 31  1  1
 31 39  1  0
 35 32  1  6
 32 40  1  0
 41 42  1  0
 41 43  1  0
 15 19  2  0
 16 22  2  0
 12 17  1  6
 17 19  1  0
 17 20  1  0
 18 19  1  0
 18 22  1  0
 18 23  1  0
  9 10  1  0
  9 11  1  0
 10 12  1  0
 11  5  1  6
 33 34  1  0
 33 35  1  0
 34 36  1  0
 35 37  1  0
 36 42  1  1
 20 21  2  0
 21 22  1  0
M  CHG  2   2  -1  26  -1
M  END
>  <COMPND>  (102) 
    8629 

>  <AUTHOR>  (102) 
    GENERATED BY OPEN BABEL 3.1.1

>  <MASTER>  (102) 
        0    0    0    0    0    0    0    0   58    0   58    0

>  <minimizedAffinity>  (102) 
-7.99482

>  <CNNscore>  (102) 
0.6339616179

>  <CNNaffinity>  (102) 
4.4493880272

>  <CNN_VS>  (102) 
2.8207411766

>  <CNNaffinity_variance>  (102) 
0.1432088912

$$$$
103
     RDKit          3D

 43 45  0  0  0  0  0  0  0  0999 V2000
   18.7717   73.7132   -7.8881 P   0  0  2  0  0  0  0  0  0  0  0  0
   17.4468   73.3231   -7.0456 O   0  0  0  0  0  0  0  0  0  0  0  0
   18.8140   75.1291   -8.3830 O   0  0  0  0  0  0  0  0  0  0  0  0
   18.8587   72.5677   -9.0274 O   0  0  0  0  0  0  0  0  0  0  0  0
   19.6251   71.4060   -8.7611 C   0  0  0  0  0  0  0  0  0  0  0  0
   18.6936   69.2900   -8.1064 O   0  0  0  0  0  0  0  0  0  0  0  0
   17.0224   69.4692  -10.5895 O   0  0  0  0  0  0  0  0  0  0  0  0
   15.2731   70.2275   -8.6397 O   0  0  0  0  0  0  0  0  0  0  0  0
   17.4400   70.5087   -9.7061 C   0  0  1  0  0  0  0  0  0  0  0  0
   16.6503   70.4504   -8.4151 C   0  0  2  0  0  0  0  0  0  0  0  0
   18.8505   70.1825   -9.2312 C   0  0  1  0  0  0  0  0  0  0  0  0
   17.3186   69.2954   -7.6889 C   0  0  2  0  0  0  0  0  0  0  0  0
   16.1241   69.6557  -10.9062 H   0  0  0  0  0  0  0  0  0  0  0  0
   14.8936   70.9898   -9.1041 H   0  0  0  0  0  0  0  0  0  0  0  0
   15.0364   68.7580   -6.1138 O   0  0  0  0  0  0  0  0  0  0  0  0
   17.2292   69.8930   -2.2222 O   0  0  0  0  0  0  0  0  0  0  0  0
   17.2653   69.4416   -6.2616 N   0  0  0  0  0  0  0  0  0  0  0  0
   16.1302   69.3234   -4.1774 N   0  0  0  0  0  0  0  0  0  0  0  0
   16.0700   69.1464   -5.5656 C   0  0  0  0  0  0  0  0  0  0  0  0
   18.3900   69.8730   -5.5667 C   0  0  0  0  0  0  0  0  0  0  0  0
   18.4307   70.0379   -4.2429 C   0  0  0  0  0  0  0  0  0  0  0  0
   17.2236   69.7511   -3.4411 C   0  0  0  0  0  0  0  0  0  0  0  0
   15.3090   69.1242   -3.6716 H   0  0  0  0  0  0  0  0  0  0  0  0
   19.9726   73.3164   -6.8814 O   0  0  0  0  0  0  0  0  0  0  0  0
   21.3382   74.0926   -6.4998 P   0  0  2  0  0  0  0  0  0  0  0  0
   20.9014   75.6500   -6.5332 O   0  0  0  0  0  0  0  0  0  0  0  0
   22.5042   73.7573   -7.3841 O   0  0  0  0  0  0  0  0  0  0  0  0
   21.5695   73.7675   -4.9359 O   0  0  0  0  0  0  0  0  0  0  0  0
   21.2892   72.0670   -3.3092 O   0  0  0  0  0  0  0  0  0  0  0  0
   18.9622   75.0138   -1.5909 O   0  0  0  0  0  0  0  0  0  0  0  0
   21.5059   74.3585   -0.4299 O   0  0  0  0  0  0  0  0  0  0  0  0
   18.9497   74.6554   -4.4634 O   0  0  0  0  0  0  0  0  0  0  0  0
   20.0674   74.4951   -2.3358 C   0  0  1  0  0  0  0  0  0  0  0  0
   20.8655   73.5622   -1.4228 C   0  0  1  0  0  0  0  0  0  0  0  0
   19.5379   73.7350   -3.5505 C   0  0  2  0  0  0  0  0  0  0  0  0
   21.9056   72.7635   -2.2199 C   0  0  1  0  0  0  0  0  0  0  0  0
   20.6433   72.9353   -4.2423 C   0  0  1  0  0  0  0  0  0  0  0  0
   19.2915   75.4979   -0.8185 H   0  0  0  0  0  0  0  0  0  0  0  0
   20.8382   74.8581    0.0659 H   0  0  0  0  0  0  0  0  0  0  0  0
   18.2513   75.1552   -4.0135 H   0  0  0  0  0  0  0  0  0  0  0  0
   21.8206   70.5353   -1.3614 O   0  0  0  0  0  0  0  0  0  0  0  0
   22.6044   71.7143   -1.3579 C   0  0  0  0  0  0  0  0  0  0  0  0
   22.2533   69.8585   -0.8169 H   0  0  0  0  0  0  0  0  0  0  0  0
 25 28  1  0
 25 24  1  0
 25 26  1  1
 25 27  2  0
  1  4  1  0
  1 24  1  0
  1  2  1  1
  1  3  2  0
  6 11  1  0
  6 12  1  0
 29 36  1  0
 29 37  1  0
  9  7  1  6
  7 13  1  0
 10  8  1  6
  8 14  1  0
 37 28  1  1
  4  5  1  0
 33 30  1  1
 30 38  1  0
 34 31  1  1
 31 39  1  0
 35 32  1  6
 32 40  1  0
 41 42  1  0
 41 43  1  0
 15 19  2  0
 16 22  2  0
 12 17  1  1
 17 19  1  0
 17 20  1  0
 18 19  1  0
 18 22  1  0
 18 23  1  0
  9 10  1  0
  9 11  1  0
 10 12  1  0
 11  5  1  1
 33 34  1  0
 33 35  1  0
 34 36  1  0
 35 37  1  0
 36 42  1  1
 20 21  2  0
 21 22  1  0
M  CHG  2   2  -1  26  -1
M  END
>  <COMPND>  (103) 
    8629 

>  <AUTHOR>  (103) 
    GENERATED BY OPEN BABEL 3.1.1

>  <MASTER>  (103) 
        0    0    0    0    0    0    0    0   58    0   58    0

>  <minimizedAffinity>  (103) 
-7.68761

>  <CNNscore>  (103) 
0.6124365330

>  <CNNaffinity>  (103) 
4.3893275261

>  <CNN_VS>  (103) 
2.6881844997

>  <CNNaffinity_variance>  (103) 
0.6358895302

$$$$
104
     RDKit          3D

 43 45  0  0  0  0  0  0  0  0999 V2000
   19.0357   74.3565   -7.5267 P   0  0  2  0  0  0  0  0  0  0  0  0
   17.9327   74.2364   -6.3493 O   0  0  0  0  0  0  0  0  0  0  0  0
   19.0665   75.6795   -8.2338 O   0  0  0  0  0  0  0  0  0  0  0  0
   18.7486   73.0670   -8.4609 O   0  0  0  0  0  0  0  0  0  0  0  0
   19.7538   72.0744   -8.5707 C   0  0  0  0  0  0  0  0  0  0  0  0
   19.0706   69.8135   -8.1289 O   0  0  0  0  0  0  0  0  0  0  0  0
   17.4444   70.0123  -10.6402 O   0  0  0  0  0  0  0  0  0  0  0  0
   15.5744   70.3830   -8.6903 O   0  0  0  0  0  0  0  0  0  0  0  0
   17.7141   71.0117   -9.6586 C   0  0  1  0  0  0  0  0  0  0  0  0
   16.9094   70.7465   -8.4033 C   0  0  2  0  0  0  0  0  0  0  0  0
   19.1430   70.8141   -9.1680 C   0  0  1  0  0  0  0  0  0  0  0  0
   17.6963   69.6191   -7.7569 C   0  0  2  0  0  0  0  0  0  0  0  0
   16.5373   70.1184  -10.9687 H   0  0  0  0  0  0  0  0  0  0  0  0
   15.1158   71.1330   -9.1001 H   0  0  0  0  0  0  0  0  0  0  0  0
   15.4362   68.7382   -6.3099 O   0  0  0  0  0  0  0  0  0  0  0  0
   17.4178   69.7135   -2.2648 O   0  0  0  0  0  0  0  0  0  0  0  0
   17.5947   69.6313   -6.3248 N   0  0  0  0  0  0  0  0  0  0  0  0
   16.4248   69.2243   -4.2969 N   0  0  0  0  0  0  0  0  0  0  0  0
   16.4153   69.1679   -5.6965 C   0  0  0  0  0  0  0  0  0  0  0  0
   18.6570   70.0987   -5.5586 C   0  0  0  0  0  0  0  0  0  0  0  0
   18.6497   70.1472   -4.2249 C   0  0  0  0  0  0  0  0  0  0  0  0
   17.4553   69.6816   -3.4910 C   0  0  0  0  0  0  0  0  0  0  0  0
   15.6136   68.9070   -3.8375 H   0  0  0  0  0  0  0  0  0  0  0  0
   20.4123   73.9624   -6.7766 O   0  0  0  0  0  0  0  0  0  0  0  0
   21.3935   74.8332   -5.8322 P   0  0  2  0  0  0  0  0  0  0  0  0
   20.4852   76.1106   -5.4312 O   0  0  0  0  0  0  0  0  0  0  0  0
   22.7081   75.1831   -6.4673 O   0  0  0  0  0  0  0  0  0  0  0  0
   21.5158   73.9763   -4.4699 O   0  0  0  0  0  0  0  0  0  0  0  0
   22.5732   75.3322   -2.8390 O   0  0  0  0  0  0  0  0  0  0  0  0
   22.2918   71.8161   -0.6922 O   0  0  0  0  0  0  0  0  0  0  0  0
   20.5866   74.0274   -0.0211 O   0  0  0  0  0  0  0  0  0  0  0  0
   22.9134   71.7366   -3.5183 O   0  0  0  0  0  0  0  0  0  0  0  0
   21.8660   72.8067   -1.6317 C   0  0  1  0  0  0  0  0  0  0  0  0
   21.7107   74.1358   -0.8900 C   0  0  1  0  0  0  0  0  0  0  0  0
   22.9120   72.9275   -2.7383 C   0  0  2  0  0  0  0  0  0  0  0  0
   21.5168   75.2989   -1.8722 C   0  0  1  0  0  0  0  0  0  0  0  0
   22.6542   74.1442   -3.6289 C   0  0  1  0  0  0  0  0  0  0  0  0
   21.6318   71.7341    0.0129 H   0  0  0  0  0  0  0  0  0  0  0  0
   20.7215   73.2891    0.5935 H   0  0  0  0  0  0  0  0  0  0  0  0
   23.0780   70.9737   -2.9431 H   0  0  0  0  0  0  0  0  0  0  0  0
   21.9685   76.4631    0.1648 O   0  0  0  0  0  0  0  0  0  0  0  0
   21.5176   76.6518   -1.1638 C   0  0  0  0  0  0  0  0  0  0  0  0
   21.9745   77.3160    0.6278 H   0  0  0  0  0  0  0  0  0  0  0  0
 25 28  1  0
 25 24  1  0
 25 26  1  1
 25 27  2  0
  1  4  1  0
  1 24  1  0
  1  2  1  1
  1  3  2  0
  6 11  1  0
  6 12  1  0
 29 36  1  0
 29 37  1  0
  9  7  1  6
  7 13  1  0
 10  8  1  6
  8 14  1  0
 37 28  1  1
  4  5  1  0
 33 30  1  1
 30 38  1  0
 34 31  1  1
 31 39  1  0
 35 32  1  6
 32 40  1  0
 41 42  1  0
 41 43  1  0
 15 19  2  0
 16 22  2  0
 12 17  1  1
 17 19  1  0
 17 20  1  0
 18 19  1  0
 18 22  1  0
 18 23  1  0
  9 10  1  0
  9 11  1  0
 10 12  1  0
 11  5  1  1
 33 34  1  0
 33 35  1  0
 34 36  1  0
 35 37  1  0
 36 42  1  1
 20 21  2  0
 21 22  1  0
M  CHG  2   2  -1  26  -1
M  END
>  <COMPND>  (104) 
    8629 

>  <AUTHOR>  (104) 
    GENERATED BY OPEN BABEL 3.1.1

>  <MASTER>  (104) 
        0    0    0    0    0    0    0    0   58    0   58    0

>  <minimizedAffinity>  (104) 
-7.11931

>  <CNNscore>  (104) 
0.5723341107

>  <CNNaffinity>  (104) 
4.3432836533

>  <CNN_VS>  (104) 
2.4858093262

>  <CNNaffinity_variance>  (104) 
0.3963761628

$$$$
105
     RDKit          3D

 43 45  0  0  0  0  0  0  0  0999 V2000
   15.9103   71.0131   -3.0838 P   0  0  2  0  0  0  0  0  0  0  0  0
   15.2790   69.7736   -3.9100 O   0  0  0  0  0  0  0  0  0  0  0  0
   15.7938   70.9052   -1.5918 O   0  0  0  0  0  0  0  0  0  0  0  0
   15.2198   72.3159   -3.7501 O   0  0  0  0  0  0  0  0  0  0  0  0
   14.3918   72.1359   -4.8859 C   0  0  0  0  0  0  0  0  0  0  0  0
   15.9196   73.1650   -6.4288 O   0  0  0  0  0  0  0  0  0  0  0  0
   13.5425   74.6393   -7.5089 O   0  0  0  0  0  0  0  0  0  0  0  0
   13.8882   72.6471   -9.3387 O   0  0  0  0  0  0  0  0  0  0  0  0
   13.6271   73.3045   -7.0126 C   0  0  1  0  0  0  0  0  0  0  0  0
   14.3286   72.4137   -8.0165 C   0  0  2  0  0  0  0  0  0  0  0  0
   14.6055   73.2993   -5.8446 C   0  0  1  0  0  0  0  0  0  0  0  0
   15.7854   72.7925   -7.8101 C   0  0  2  0  0  0  0  0  0  0  0  0
   12.9230   74.6678   -8.2554 H   0  0  0  0  0  0  0  0  0  0  0  0
   12.9563   72.3906   -9.4193 H   0  0  0  0  0  0  0  0  0  0  0  0
   17.4915   72.6633  -10.0574 O   0  0  0  0  0  0  0  0  0  0  0  0
   19.1702   68.5666   -8.7766 O   0  0  0  0  0  0  0  0  0  0  0  0
   16.6791   71.7039   -8.0885 N   0  0  0  0  0  0  0  0  0  0  0  0
   18.3261   70.6237   -9.4178 N   0  0  0  0  0  0  0  0  0  0  0  0
   17.4928   71.7362   -9.2449 C   0  0  0  0  0  0  0  0  0  0  0  0
   16.7427   70.6199   -7.2196 C   0  0  0  0  0  0  0  0  0  0  0  0
   17.5418   69.5662   -7.3994 C   0  0  0  0  0  0  0  0  0  0  0  0
   18.4242   69.5216   -8.5832 C   0  0  0  0  0  0  0  0  0  0  0  0
   18.9018   70.6241  -10.2168 H   0  0  0  0  0  0  0  0  0  0  0  0
   17.4276   71.0833   -3.6368 O   0  0  0  0  0  0  0  0  0  0  0  0
   18.7288   70.1921   -3.2826 P   0  0  2  0  0  0  0  0  0  0  0  0
   19.4174   69.9506   -4.7265 O   0  0  0  0  0  0  0  0  0  0  0  0
   18.4243   68.9332   -2.5234 O   0  0  0  0  0  0  0  0  0  0  0  0
   19.7249   71.2082   -2.5208 O   0  0  0  0  0  0  0  0  0  0  0  0
   21.1357   72.6215   -3.7970 O   0  0  0  0  0  0  0  0  0  0  0  0
   23.1820   72.7100   -0.2115 O   0  0  0  0  0  0  0  0  0  0  0  0
   21.7137   75.0265   -1.0636 O   0  0  0  0  0  0  0  0  0  0  0  0
   21.9548   70.2483   -1.1133 O   0  0  0  0  0  0  0  0  0  0  0  0
   22.0250   72.6550   -1.0504 C   0  0  1  0  0  0  0  0  0  0  0  0
   21.9977   73.9183   -1.9131 C   0  0  1  0  0  0  0  0  0  0  0  0
   22.1031   71.4067   -1.9272 C   0  0  2  0  0  0  0  0  0  0  0  0
   20.9413   73.8097   -3.0209 C   0  0  1  0  0  0  0  0  0  0  0  0
   21.0400   71.4216   -3.0270 C   0  0  1  0  0  0  0  0  0  0  0  0
   23.1384   73.5001    0.3482 H   0  0  0  0  0  0  0  0  0  0  0  0
   22.3878   75.0835   -0.3682 H   0  0  0  0  0  0  0  0  0  0  0  0
   22.6337   70.2504   -0.4212 H   0  0  0  0  0  0  0  0  0  0  0  0
   20.0140   74.8073   -4.9841 O   0  0  0  0  0  0  0  0  0  0  0  0
   21.0039   74.9896   -3.9884 C   0  0  0  0  0  0  0  0  0  0  0  0
   20.0419   75.5510   -5.6068 H   0  0  0  0  0  0  0  0  0  0  0  0
 25 28  1  0
 25 24  1  0
 25 26  1  6
 25 27  2  0
  1  4  1  0
  1 24  1  0
  1  2  1  6
  1  3  2  0
  6 11  1  0
  6 12  1  0
 29 36  1  0
 29 37  1  0
  9  7  1  6
  7 13  1  0
 10  8  1  6
  8 14  1  0
 37 28  1  1
  4  5  1  0
 33 30  1  1
 30 38  1  0
 34 31  1  1
 31 39  1  0
 35 32  1  1
 32 40  1  0
 41 42  1  0
 41 43  1  0
 15 19  2  0
 16 22  2  0
 12 17  1  1
 17 19  1  0
 17 20  1  0
 18 19  1  0
 18 22  1  0
 18 23  1  0
  9 10  1  0
  9 11  1  0
 10 12  1  0
 11  5  1  1
 33 34  1  0
 33 35  1  0
 34 36  1  0
 35 37  1  0
 36 42  1  6
 20 21  2  0
 21 22  1  0
M  CHG  2   2  -1  26  -1
M  END
>  <COMPND>  (105) 
    8629 

>  <AUTHOR>  (105) 
    GENERATED BY OPEN BABEL 3.1.1

>  <MASTER>  (105) 
        0    0    0    0    0    0    0    0   58    0   58    0

>  <minimizedAffinity>  (105) 
-7.58010

>  <CNNscore>  (105) 
0.5001413822

>  <CNNaffinity>  (105) 
4.3404707909

>  <CNN_VS>  (105) 
2.1708490849

>  <CNNaffinity_variance>  (105) 
0.2228064537

$$$$
106
     RDKit          3D

 43 45  0  0  0  0  0  0  0  0999 V2000
   16.7804   72.6212   -3.5202 P   0  0  2  0  0  0  0  0  0  0  0  0
   15.9146   73.0388   -2.2189 O   0  0  0  0  0  0  0  0  0  0  0  0
   17.8864   73.5704   -3.8768 O   0  0  0  0  0  0  0  0  0  0  0  0
   15.6653   72.3788   -4.6672 O   0  0  0  0  0  0  0  0  0  0  0  0
   15.7706   71.2222   -5.4789 C   0  0  0  0  0  0  0  0  0  0  0  0
   16.1907   72.5458   -7.4399 O   0  0  0  0  0  0  0  0  0  0  0  0
   14.4149   70.6165   -8.8941 O   0  0  0  0  0  0  0  0  0  0  0  0
   16.9110   69.7703   -9.5941 O   0  0  0  0  0  0  0  0  0  0  0  0
   15.3408   70.3697   -7.8372 C   0  0  1  0  0  0  0  0  0  0  0  0
   16.7618   70.4364   -8.3568 C   0  0  2  0  0  0  0  0  0  0  0  0
   15.2941   71.5584   -6.8854 C   0  0  1  0  0  0  0  0  0  0  0  0
   16.9864   71.9347   -8.4686 C   0  0  2  0  0  0  0  0  0  0  0  0
   14.4266   69.8705   -9.5149 H   0  0  0  0  0  0  0  0  0  0  0  0
   16.7584   68.8204   -9.4706 H   0  0  0  0  0  0  0  0  0  0  0  0
   19.0862   71.2441  -10.2270 O   0  0  0  0  0  0  0  0  0  0  0  0
   22.2229   73.3835   -7.6146 O   0  0  0  0  0  0  0  0  0  0  0  0
   18.3614   72.2985   -8.2726 N   0  0  0  0  0  0  0  0  0  0  0  0
   20.6463   72.3101   -8.9249 N   0  0  0  0  0  0  0  0  0  0  0  0
   19.3384   71.9009   -9.2148 C   0  0  0  0  0  0  0  0  0  0  0  0
   18.7292   73.0418   -7.1562 C   0  0  0  0  0  0  0  0  0  0  0  0
   19.9810   73.4228   -6.8936 C   0  0  0  0  0  0  0  0  0  0  0  0
   21.0619   73.0483   -7.8282 C   0  0  0  0  0  0  0  0  0  0  0  0
   21.3439   72.0442   -9.5672 H   0  0  0  0  0  0  0  0  0  0  0  0
   17.2689   71.1216   -3.1658 O   0  0  0  0  0  0  0  0  0  0  0  0
   18.7265   70.4295   -3.2618 P   0  0  2  0  0  0  0  0  0  0  0  0
   19.0740   70.5136   -4.8397 O   0  0  0  0  0  0  0  0  0  0  0  0
   18.7889   69.0439   -2.6871 O   0  0  0  0  0  0  0  0  0  0  0  0
   19.7278   71.4876   -2.5670 O   0  0  0  0  0  0  0  0  0  0  0  0
   21.2671   72.8311   -3.7680 O   0  0  0  0  0  0  0  0  0  0  0  0
   23.2497   72.6285   -0.1515 O   0  0  0  0  0  0  0  0  0  0  0  0
   21.9819   75.0825   -0.9380 O   0  0  0  0  0  0  0  0  0  0  0  0
   21.8506   70.3050   -1.1633 O   0  0  0  0  0  0  0  0  0  0  0  0
   22.1071   72.6950   -1.0091 C   0  0  1  0  0  0  0  0  0  0  0  0
   22.1937   73.9869   -1.8241 C   0  0  1  0  0  0  0  0  0  0  0  0
   22.1033   71.4770   -1.9309 C   0  0  2  0  0  0  0  0  0  0  0  0
   21.1521   74.0019   -2.9509 C   0  0  1  0  0  0  0  0  0  0  0  0
   21.0644   71.6152   -3.0452 C   0  0  1  0  0  0  0  0  0  0  0  0
   23.2579   73.3988    0.4368 H   0  0  0  0  0  0  0  0  0  0  0  0
   22.6458   75.0611   -0.2309 H   0  0  0  0  0  0  0  0  0  0  0  0
   22.5152   70.2288   -0.4616 H   0  0  0  0  0  0  0  0  0  0  0  0
   20.6734   76.3190   -3.2841 O   0  0  0  0  0  0  0  0  0  0  0  0
   21.3237   75.2075   -3.8724 C   0  0  0  0  0  0  0  0  0  0  0  0
   20.7746   77.0938   -3.8595 H   0  0  0  0  0  0  0  0  0  0  0  0
 25 28  1  0
 25 24  1  0
 25 26  1  6
 25 27  2  0
  1  4  1  0
  1 24  1  0
  1  2  1  1
  1  3  2  0
  6 11  1  0
  6 12  1  0
 29 36  1  0
 29 37  1  0
  9  7  1  6
  7 13  1  0
 10  8  1  6
  8 14  1  0
 37 28  1  1
  4  5  1  0
 33 30  1  1
 30 38  1  0
 34 31  1  1
 31 39  1  0
 35 32  1  1
 32 40  1  0
 41 42  1  0
 41 43  1  0
 15 19  2  0
 16 22  2  0
 12 17  1  1
 17 19  1  0
 17 20  1  0
 18 19  1  0
 18 22  1  0
 18 23  1  0
  9 10  1  0
  9 11  1  0
 10 12  1  0
 11  5  1  1
 33 34  1  0
 33 35  1  0
 34 36  1  0
 35 37  1  0
 36 42  1  6
 20 21  2  0
 21 22  1  0
M  CHG  2   2  -1  26  -1
M  END
>  <COMPND>  (106) 
    8629 

>  <AUTHOR>  (106) 
    GENERATED BY OPEN BABEL 3.1.1

>  <MASTER>  (106) 
        0    0    0    0    0    0    0    0   58    0   58    0

>  <minimizedAffinity>  (106) 
-7.92009

>  <CNNscore>  (106) 
0.4808888435

>  <CNNaffinity>  (106) 
4.1333160400

>  <CNN_VS>  (106) 
1.9876655340

>  <CNNaffinity_variance>  (106) 
0.6570627093

$$$$
107
     RDKit          3D

 43 45  0  0  0  0  0  0  0  0999 V2000
   20.2141   73.0512   -5.5713 P   0  0  2  0  0  0  0  0  0  0  0  0
   18.9299   73.7024   -4.8338 O   0  0  0  0  0  0  0  0  0  0  0  0
   21.0943   74.0292   -6.2926 O   0  0  0  0  0  0  0  0  0  0  0  0
   19.5828   71.8709   -6.4804 O   0  0  0  0  0  0  0  0  0  0  0  0
   18.3113   72.0785   -7.0702 C   0  0  0  0  0  0  0  0  0  0  0  0
   17.3800   69.8911   -6.7213 O   0  0  0  0  0  0  0  0  0  0  0  0
   16.7139   69.9132   -9.6448 O   0  0  0  0  0  0  0  0  0  0  0  0
   14.3217   70.5217   -8.4855 O   0  0  0  0  0  0  0  0  0  0  0  0
   16.6974   70.9887   -8.7076 C   0  0  1  0  0  0  0  0  0  0  0  0
   15.5010   70.8658   -7.7872 C   0  0  2  0  0  0  0  0  0  0  0  0
   17.8613   70.7897   -7.7446 C   0  0  1  0  0  0  0  0  0  0  0  0
   15.9516   69.7768   -6.8284 C   0  0  2  0  0  0  0  0  0  0  0  0
   15.9796   70.0187  -10.2706 H   0  0  0  0  0  0  0  0  0  0  0  0
   14.0761   71.2459   -9.0822 H   0  0  0  0  0  0  0  0  0  0  0  0
   14.1143   67.9617   -5.6849 O   0  0  0  0  0  0  0  0  0  0  0  0
   13.7961   70.4400   -1.8121 O   0  0  0  0  0  0  0  0  0  0  0  0
   15.3729   69.9230   -5.5226 N   0  0  0  0  0  0  0  0  0  0  0  0
   13.9575   69.1971   -3.7574 N   0  0  0  0  0  0  0  0  0  0  0  0
   14.4596   68.9556   -5.0425 C   0  0  0  0  0  0  0  0  0  0  0  0
   15.7124   71.0160   -4.7326 C   0  0  0  0  0  0  0  0  0  0  0  0
   15.2236   71.2324   -3.5096 C   0  0  0  0  0  0  0  0  0  0  0  0
   14.2633   70.2690   -2.9338 C   0  0  0  0  0  0  0  0  0  0  0  0
   13.3192   68.5366   -3.4023 H   0  0  0  0  0  0  0  0  0  0  0  0
   20.9452   72.2401   -4.3794 O   0  0  0  0  0  0  0  0  0  0  0  0
   20.3382   71.4113   -3.1314 P   0  0  2  0  0  0  0  0  0  0  0  0
   21.5552   70.4326   -2.7089 O   0  0  0  0  0  0  0  0  0  0  0  0
   19.0493   70.7025   -3.4320 O   0  0  0  0  0  0  0  0  0  0  0  0
   20.2457   72.4877   -1.9324 O   0  0  0  0  0  0  0  0  0  0  0  0
   20.6005   74.8183   -2.1756 O   0  0  0  0  0  0  0  0  0  0  0  0
   21.7614   74.3817    1.7630 O   0  0  0  0  0  0  0  0  0  0  0  0
   19.2728   75.6794    1.1538 O   0  0  0  0  0  0  0  0  0  0  0  0
   22.4275   72.3362   -0.1739 O   0  0  0  0  0  0  0  0  0  0  0  0
   20.9836   74.1038    0.5954 C   0  0  1  0  0  0  0  0  0  0  0  0
   20.2696   75.3908    0.1773 C   0  0  1  0  0  0  0  0  0  0  0  0
   21.9100   73.6171   -0.5173 C   0  0  2  0  0  0  0  0  0  0  0  0
   19.6315   75.2444   -1.2106 C   0  0  1  0  0  0  0  0  0  0  0  0
   21.1892   73.5538   -1.8651 C   0  0  1  0  0  0  0  0  0  0  0  0
   21.1790   74.6907    2.4735 H   0  0  0  0  0  0  0  0  0  0  0  0
   19.6889   75.7689    2.0256 H   0  0  0  0  0  0  0  0  0  0  0  0
   22.8816   72.3896    0.6809 H   0  0  0  0  0  0  0  0  0  0  0  0
   18.7099   76.4118   -3.0806 O   0  0  0  0  0  0  0  0  0  0  0  0
   19.0501   76.5635   -1.7148 C   0  0  0  0  0  0  0  0  0  0  0  0
   18.3383   77.2436   -3.4150 H   0  0  0  0  0  0  0  0  0  0  0  0
 25 28  1  0
 25 24  1  0
 25 26  1  1
 25 27  2  0
  1  4  1  0
  1 24  1  0
  1  2  1  1
  1  3  2  0
  6 11  1  0
  6 12  1  0
 29 36  1  0
 29 37  1  0
  9  7  1  6
  7 13  1  0
 10  8  1  6
  8 14  1  0
 37 28  1  1
  4  5  1  0
 33 30  1  1
 30 38  1  0
 34 31  1  1
 31 39  1  0
 35 32  1  1
 32 40  1  0
 41 42  1  0
 41 43  1  0
 15 19  2  0
 16 22  2  0
 12 17  1  1
 17 19  1  0
 17 20  1  0
 18 19  1  0
 18 22  1  0
 18 23  1  0
  9 10  1  0
  9 11  1  0
 10 12  1  0
 11  5  1  1
 33 34  1  0
 33 35  1  0
 34 36  1  0
 35 37  1  0
 36 42  1  6
 20 21  2  0
 21 22  1  0
M  CHG  2   2  -1  26  -1
M  END
>  <COMPND>  (107) 
    8629 

>  <AUTHOR>  (107) 
    GENERATED BY OPEN BABEL 3.1.1

>  <MASTER>  (107) 
        0    0    0    0    0    0    0    0   58    0   58    0

>  <minimizedAffinity>  (107) 
-6.48552

>  <CNNscore>  (107) 
0.4746917784

>  <CNNaffinity>  (107) 
4.1385450363

>  <CNN_VS>  (107) 
1.9645333290

>  <CNNaffinity_variance>  (107) 
0.2105624676

$$$$
108
     RDKit          3D

 43 45  0  0  0  0  0  0  0  0999 V2000
   18.7888   73.8957   -8.0687 P   0  0  2  0  0  0  0  0  0  0  0  0
   17.5206   74.6882   -8.6861 O   0  0  0  0  0  0  0  0  0  0  0  0
   19.9721   74.7557   -7.7347 O   0  0  0  0  0  0  0  0  0  0  0  0
   19.0611   72.7087   -9.1339 O   0  0  0  0  0  0  0  0  0  0  0  0
   19.7269   71.5400   -8.6883 C   0  0  0  0  0  0  0  0  0  0  0  0
   18.8216   69.3964   -8.0891 O   0  0  0  0  0  0  0  0  0  0  0  0
   17.1628   69.6103  -10.5778 O   0  0  0  0  0  0  0  0  0  0  0  0
   15.3914   70.2982   -8.6218 O   0  0  0  0  0  0  0  0  0  0  0  0
   17.5604   70.6345   -9.6677 C   0  0  1  0  0  0  0  0  0  0  0  0
   16.7640   70.5349   -8.3834 C   0  0  2  0  0  0  0  0  0  0  0  0
   18.9725   70.3171   -9.1918 C   0  0  1  0  0  0  0  0  0  0  0  0
   17.4443   69.3727   -7.6802 C   0  0  2  0  0  0  0  0  0  0  0  0
   16.2639   69.7916  -10.8957 H   0  0  0  0  0  0  0  0  0  0  0  0
   15.0039   71.0657   -9.0706 H   0  0  0  0  0  0  0  0  0  0  0  0
   15.1045   68.9675   -6.1507 O   0  0  0  0  0  0  0  0  0  0  0  0
   17.3170   69.8302   -2.2008 O   0  0  0  0  0  0  0  0  0  0  0  0
   17.3804   69.4846   -6.2502 N   0  0  0  0  0  0  0  0  0  0  0  0
   16.2081   69.3972   -4.1852 N   0  0  0  0  0  0  0  0  0  0  0  0
   16.1558   69.2622   -5.5784 C   0  0  0  0  0  0  0  0  0  0  0  0
   18.5237   69.8113   -5.5290 C   0  0  0  0  0  0  0  0  0  0  0  0
   18.5565   69.9375   -4.2007 C   0  0  0  0  0  0  0  0  0  0  0  0
   17.3193   69.7215   -3.4231 C   0  0  0  0  0  0  0  0  0  0  0  0
   15.3667   69.2473   -3.6960 H   0  0  0  0  0  0  0  0  0  0  0  0
   18.1490   73.1125   -6.8076 O   0  0  0  0  0  0  0  0  0  0  0  0
   17.5887   73.6574   -5.3927 P   0  0  2  0  0  0  0  0  0  0  0  0
   16.3679   72.6481   -5.0635 O   0  0  0  0  0  0  0  0  0  0  0  0
   17.2070   75.1093   -5.4000 O   0  0  0  0  0  0  0  0  0  0  0  0
   18.7353   73.2726   -4.3239 O   0  0  0  0  0  0  0  0  0  0  0  0
   19.8724   74.7003   -2.8122 O   0  0  0  0  0  0  0  0  0  0  0  0
   22.9239   72.0417   -3.6311 O   0  0  0  0  0  0  0  0  0  0  0  0
   21.6271   71.9664   -1.0698 O   0  0  0  0  0  0  0  0  0  0  0  0
   21.1229   72.8672   -5.7416 O   0  0  0  0  0  0  0  0  0  0  0  0
   21.5685   72.4424   -3.4130 C   0  0  1  0  0  0  0  0  0  0  0  0
   21.4628   73.0295   -2.0042 C   0  0  1  0  0  0  0  0  0  0  0  0
   21.1815   73.4849   -4.4604 C   0  0  2  0  0  0  0  0  0  0  0  0
   20.1098   73.7224   -1.7928 C   0  0  1  0  0  0  0  0  0  0  0  0
   19.8432   74.1479   -4.1297 C   0  0  1  0  0  0  0  0  0  0  0  0
   23.1758   71.3795   -2.9697 H   0  0  0  0  0  0  0  0  0  0  0  0
   22.4850   71.5371   -1.2143 H   0  0  0  0  0  0  0  0  0  0  0  0
   21.9761   72.4515   -5.9393 H   0  0  0  0  0  0  0  0  0  0  0  0
   21.3589   74.5803    0.0545 O   0  0  0  0  0  0  0  0  0  0  0  0
   20.0433   74.4503   -0.4521 C   0  0  0  0  0  0  0  0  0  0  0  0
   21.3321   75.0421    0.9075 H   0  0  0  0  0  0  0  0  0  0  0  0
 25 28  1  0
 25 24  1  0
 25 26  1  1
 25 27  2  0
  1  4  1  0
  1 24  1  0
  1  2  1  6
  1  3  2  0
  6 11  1  0
  6 12  1  0
 29 36  1  0
 29 37  1  0
  9  7  1  6
  7 13  1  0
 10  8  1  6
  8 14  1  0
 37 28  1  1
  4  5  1  0
 33 30  1  6
 30 38  1  0
 34 31  1  1
 31 39  1  0
 35 32  1  6
 32 40  1  0
 41 42  1  0
 41 43  1  0
 15 19  2  0
 16 22  2  0
 12 17  1  1
 17 19  1  0
 17 20  1  0
 18 19  1  0
 18 22  1  0
 18 23  1  0
  9 10  1  0
  9 11  1  0
 10 12  1  0
 11  5  1  1
 33 34  1  0
 33 35  1  0
 34 36  1  0
 35 37  1  0
 36 42  1  1
 20 21  2  0
 21 22  1  0
M  CHG  2   2  -1  26  -1
M  END
>  <COMPND>  (108) 
    8629 

>  <AUTHOR>  (108) 
    GENERATED BY OPEN BABEL 3.1.1

>  <MASTER>  (108) 
        0    0    0    0    0    0    0    0   58    0   58    0

>  <minimizedAffinity>  (108) 
-7.29207

>  <CNNscore>  (108) 
0.4696045220

>  <CNNaffinity>  (108) 
4.0814042091

>  <CNN_VS>  (108) 
1.9166458845

>  <CNNaffinity_variance>  (108) 
0.6486468911

$$$$
109
     RDKit          3D

 43 45  0  0  0  0  0  0  0  0999 V2000
   17.1098   72.3332   -3.1769 P   0  0  2  0  0  0  0  0  0  0  0  0
   15.5339   72.0179   -2.9905 O   0  0  0  0  0  0  0  0  0  0  0  0
   17.6893   73.2837   -2.1709 O   0  0  0  0  0  0  0  0  0  0  0  0
   17.2347   72.7864   -4.7251 O   0  0  0  0  0  0  0  0  0  0  0  0
   18.0440   73.9065   -5.0385 C   0  0  0  0  0  0  0  0  0  0  0  0
   18.0030   72.9083   -7.2238 O   0  0  0  0  0  0  0  0  0  0  0  0
   20.4968   74.4769   -7.7821 O   0  0  0  0  0  0  0  0  0  0  0  0
   18.5719   75.9606   -9.0190 O   0  0  0  0  0  0  0  0  0  0  0  0
   19.3557   74.8421   -7.0076 C   0  0  1  0  0  0  0  0  0  0  0  0
   18.1872   75.1680   -7.9143 C   0  0  2  0  0  0  0  0  0  0  0  0
   18.8600   73.5953   -6.2857 C   0  0  1  0  0  0  0  0  0  0  0  0
   17.7114   73.7848   -8.3246 C   0  0  2  0  0  0  0  0  0  0  0  0
   20.8315   75.2572   -8.2522 H   0  0  0  0  0  0  0  0  0  0  0  0
   18.8665   76.8302   -8.7063 H   0  0  0  0  0  0  0  0  0  0  0  0
   16.5691   73.8945  -10.9055 O   0  0  0  0  0  0  0  0  0  0  0  0
   12.2871   73.6341   -9.2210 O   0  0  0  0  0  0  0  0  0  0  0  0
   16.3008   73.7471   -8.5896 N   0  0  0  0  0  0  0  0  0  0  0  0
   14.4379   73.7646  -10.0647 N   0  0  0  0  0  0  0  0  0  0  0  0
   15.8307   73.8093   -9.9221 C   0  0  0  0  0  0  0  0  0  0  0  0
   15.3999   73.6491   -7.5348 C   0  0  0  0  0  0  0  0  0  0  0  0
   14.0746   73.6089   -7.6875 C   0  0  0  0  0  0  0  0  0  0  0  0
   13.5014   73.6688   -9.0476 C   0  0  0  0  0  0  0  0  0  0  0  0
   14.0874   73.8069  -10.9840 H   0  0  0  0  0  0  0  0  0  0  0  0
   17.7777   70.8611   -3.1742 O   0  0  0  0  0  0  0  0  0  0  0  0
   19.2664   70.3702   -3.5690 P   0  0  2  0  0  0  0  0  0  0  0  0
   19.2195   70.3055   -5.1849 O   0  0  0  0  0  0  0  0  0  0  0  0
   19.6866   69.0885   -2.9098 O   0  0  0  0  0  0  0  0  0  0  0  0
   20.2143   71.6341   -3.2389 O   0  0  0  0  0  0  0  0  0  0  0  0
   22.1800   72.5378   -4.2065 O   0  0  0  0  0  0  0  0  0  0  0  0
   23.2267   72.7982   -0.2206 O   0  0  0  0  0  0  0  0  0  0  0  0
   22.5771   75.1879   -1.6750 O   0  0  0  0  0  0  0  0  0  0  0  0
   21.7457   70.5025   -1.1776 O   0  0  0  0  0  0  0  0  0  0  0  0
   22.3354   72.8322   -1.3385 C   0  0  1  0  0  0  0  0  0  0  0  0
   22.8093   73.9269   -2.2965 C   0  0  1  0  0  0  0  0  0  0  0  0
   22.3493   71.4700   -2.0296 C   0  0  2  0  0  0  0  0  0  0  0  0
   22.0684   73.8479   -3.6381 C   0  0  1  0  0  0  0  0  0  0  0  0
   21.6276   71.5132   -3.3777 C   0  0  1  0  0  0  0  0  0  0  0  0
   23.2222   73.6600    0.2230 H   0  0  0  0  0  0  0  0  0  0  0  0
   23.0500   75.2246   -0.8287 H   0  0  0  0  0  0  0  0  0  0  0  0
   22.2117   70.4846   -0.3277 H   0  0  0  0  0  0  0  0  0  0  0  0
   22.6559   74.1937   -5.9281 O   0  0  0  0  0  0  0  0  0  0  0  0
   22.6346   74.8284   -4.6628 C   0  0  0  0  0  0  0  0  0  0  0  0
   23.0137   74.8061   -6.5904 H   0  0  0  0  0  0  0  0  0  0  0  0
 25 28  1  0
 25 24  1  0
 25 26  1  6
 25 27  2  0
  1  4  1  0
  1 24  1  0
  1  2  1  1
  1  3  2  0
  6 11  1  0
  6 12  1  0
 29 36  1  0
 29 37  1  0
  9  7  1  6
  7 13  1  0
 10  8  1  6
  8 14  1  0
 37 28  1  1
  4  5  1  0
 33 30  1  1
 30 38  1  0
 34 31  1  1
 31 39  1  0
 35 32  1  1
 32 40  1  0
 41 42  1  0
 41 43  1  0
 15 19  2  0
 16 22  2  0
 12 17  1  1
 17 19  1  0
 17 20  1  0
 18 19  1  0
 18 22  1  0
 18 23  1  0
  9 10  1  0
  9 11  1  0
 10 12  1  0
 11  5  1  1
 33 34  1  0
 33 35  1  0
 34 36  1  0
 35 37  1  0
 36 42  1  6
 20 21  2  0
 21 22  1  0
M  CHG  2   2  -1  26  -1
M  END
>  <COMPND>  (109) 
    8629 

>  <AUTHOR>  (109) 
    GENERATED BY OPEN BABEL 3.1.1

>  <MASTER>  (109) 
        0    0    0    0    0    0    0    0   58    0   58    0

>  <minimizedAffinity>  (109) 
-6.57990

>  <CNNscore>  (109) 
0.4401798248

>  <CNNaffinity>  (109) 
4.0881242752

>  <CNN_VS>  (109) 
1.7995098829

>  <CNNaffinity_variance>  (109) 
0.1469358206

$$$$
110
     RDKit          3D

 43 45  0  0  0  0  0  0  0  0999 V2000
   21.1244   73.6138   -6.7603 P   0  0  2  0  0  0  0  0  0  0  0  0
   20.3211   75.0099   -6.9118 O   0  0  0  0  0  0  0  0  0  0  0  0
   22.3780   73.5119   -7.5785 O   0  0  0  0  0  0  0  0  0  0  0  0
   20.0015   72.4859   -7.0518 O   0  0  0  0  0  0  0  0  0  0  0  0
   19.2036   72.6113   -8.2161 C   0  0  0  0  0  0  0  0  0  0  0  0
   18.7335   70.3409   -7.5851 O   0  0  0  0  0  0  0  0  0  0  0  0
   17.5049   70.0372  -10.3034 O   0  0  0  0  0  0  0  0  0  0  0  0
   15.3242   70.3617   -8.6985 O   0  0  0  0  0  0  0  0  0  0  0  0
   17.4983   71.1663   -9.4314 C   0  0  1  0  0  0  0  0  0  0  0  0
   16.5457   70.9338   -8.2773 C   0  0  2  0  0  0  0  0  0  0  0  0
   18.8470   71.2212   -8.7246 C   0  0  1  0  0  0  0  0  0  0  0  0
   17.3510   70.0028   -7.3868 C   0  0  2  0  0  0  0  0  0  0  0  0
   16.6537   69.9815  -10.7664 H   0  0  0  0  0  0  0  0  0  0  0  0
   14.8491   70.9922   -9.2619 H   0  0  0  0  0  0  0  0  0  0  0  0
   16.4178   67.9206   -5.7219 O   0  0  0  0  0  0  0  0  0  0  0  0
   16.1406   70.7179   -2.0696 O   0  0  0  0  0  0  0  0  0  0  0  0
   17.0276   70.1589   -5.9967 N   0  0  0  0  0  0  0  0  0  0  0  0
   16.2807   69.3151   -3.9046 N   0  0  0  0  0  0  0  0  0  0  0  0
   16.5659   69.0499   -5.2501 C   0  0  0  0  0  0  0  0  0  0  0  0
   17.1695   71.4009   -5.3874 C   0  0  0  0  0  0  0  0  0  0  0  0
   16.8921   71.6376   -4.1036 C   0  0  0  0  0  0  0  0  0  0  0  0
   16.4044   70.5323   -3.2535 C   0  0  0  0  0  0  0  0  0  0  0  0
   15.9572   68.5575   -3.3650 H   0  0  0  0  0  0  0  0  0  0  0  0
   21.3514   73.4964   -5.1641 O   0  0  0  0  0  0  0  0  0  0  0  0
   22.4493   74.1807   -4.1949 P   0  0  2  0  0  0  0  0  0  0  0  0
   22.1043   75.7579   -4.2988 O   0  0  0  0  0  0  0  0  0  0  0  0
   23.8702   73.8340   -4.5335 O   0  0  0  0  0  0  0  0  0  0  0  0
   21.9956   73.7615   -2.7038 O   0  0  0  0  0  0  0  0  0  0  0  0
   23.4746   75.0314   -1.3559 O   0  0  0  0  0  0  0  0  0  0  0  0
   21.1175   73.3940    1.6129 O   0  0  0  0  0  0  0  0  0  0  0  0
   20.8574   76.1813    0.9714 O   0  0  0  0  0  0  0  0  0  0  0  0
   21.8408   71.8062   -0.6969 O   0  0  0  0  0  0  0  0  0  0  0  0
   21.3917   73.9425    0.3209 C   0  0  1  0  0  0  0  0  0  0  0  0
   21.9277   75.3634    0.5070 C   0  0  1  0  0  0  0  0  0  0  0  0
   22.4251   73.0661   -0.3844 C   0  0  2  0  0  0  0  0  0  0  0  0
   22.4931   75.9187   -0.8072 C   0  0  1  0  0  0  0  0  0  0  0  0
   22.9588   73.7324   -1.6537 C   0  0  1  0  0  0  0  0  0  0  0  0
   20.4617   73.9456    2.0659 H   0  0  0  0  0  0  0  0  0  0  0  0
   20.5090   75.8195    1.8014 H   0  0  0  0  0  0  0  0  0  0  0  0
   21.5071   71.3944    0.1149 H   0  0  0  0  0  0  0  0  0  0  0  0
   24.3085   77.3301   -1.4561 O   0  0  0  0  0  0  0  0  0  0  0  0
   23.1747   77.2710   -0.6104 C   0  0  0  0  0  0  0  0  0  0  0  0
   24.7522   78.1855   -1.3418 H   0  0  0  0  0  0  0  0  0  0  0  0
 25 28  1  0
 25 24  1  0
 25 26  1  1
 25 27  2  0
  1  4  1  0
  1 24  1  0
  1  2  1  1
  1  3  2  0
  6 11  1  0
  6 12  1  0
 29 36  1  0
 29 37  1  0
  9  7  1  6
  7 13  1  0
 10  8  1  6
  8 14  1  0
 37 28  1  6
  4  5  1  0
 33 30  1  1
 30 38  1  0
 34 31  1  6
 31 39  1  0
 35 32  1  6
 32 40  1  0
 41 42  1  0
 41 43  1  0
 15 19  2  0
 16 22  2  0
 12 17  1  1
 17 19  1  0
 17 20  1  0
 18 19  1  0
 18 22  1  0
 18 23  1  0
  9 10  1  0
  9 11  1  0
 10 12  1  0
 11  5  1  1
 33 34  1  0
 33 35  1  0
 34 36  1  0
 35 37  1  0
 36 42  1  1
 20 21  2  0
 21 22  1  0
M  CHG  2   2  -1  26  -1
M  END
>  <COMPND>  (110) 
    8629 

>  <AUTHOR>  (110) 
    GENERATED BY OPEN BABEL 3.1.1

>  <MASTER>  (110) 
        0    0    0    0    0    0    0    0   58    0   58    0

>  <minimizedAffinity>  (110) 
-7.33876

>  <CNNscore>  (110) 
0.4296628833

>  <CNNaffinity>  (110) 
4.2127475739

>  <CNN_VS>  (110) 
1.8100612164

>  <CNNaffinity_variance>  (110) 
0.2174718380

$$$$
111
     RDKit          3D

 43 45  0  0  0  0  0  0  0  0999 V2000
   21.0336   71.3462   -2.0468 P   0  0  2  0  0  0  0  0  0  0  0  0
   22.2180   70.5369   -1.2987 O   0  0  0  0  0  0  0  0  0  0  0  0
   20.3532   72.3901   -1.2110 O   0  0  0  0  0  0  0  0  0  0  0  0
   20.0760   70.1805   -2.6318 O   0  0  0  0  0  0  0  0  0  0  0  0
   19.4491   70.3863   -3.8857 C   0  0  0  0  0  0  0  0  0  0  0  0
   17.5061   71.3730   -4.8981 O   0  0  0  0  0  0  0  0  0  0  0  0
   15.9669   70.2769   -2.5699 O   0  0  0  0  0  0  0  0  0  0  0  0
   15.4147   68.4808   -4.5461 O   0  0  0  0  0  0  0  0  0  0  0  0
   17.0761   69.7101   -3.2655 C   0  0  1  0  0  0  0  0  0  0  0  0
   16.6371   69.1861   -4.6169 C   0  0  2  0  0  0  0  0  0  0  0  0
   18.0158   70.8447   -3.6541 C   0  0  1  0  0  0  0  0  0  0  0  0
   16.5280   70.4647   -5.4303 C   0  0  2  0  0  0  0  0  0  0  0  0
   15.3529   69.5713   -2.3111 H   0  0  0  0  0  0  0  0  0  0  0  0
   15.5358   67.6759   -4.0187 H   0  0  0  0  0  0  0  0  0  0  0  0
   14.7457   71.1214   -7.5207 O   0  0  0  0  0  0  0  0  0  0  0  0
   17.6730   69.6022  -10.7401 O   0  0  0  0  0  0  0  0  0  0  0  0
   16.7990   70.2519   -6.8241 N   0  0  0  0  0  0  0  0  0  0  0  0
   16.2048   70.3646   -9.1221 N   0  0  0  0  0  0  0  0  0  0  0  0
   15.8363   70.6160   -7.7943 C   0  0  0  0  0  0  0  0  0  0  0  0
   18.0081   69.6883   -7.2169 C   0  0  0  0  0  0  0  0  0  0  0  0
   18.3436   69.4539   -8.4872 C   0  0  0  0  0  0  0  0  0  0  0  0
   17.3939   69.8053   -9.5626 C   0  0  0  0  0  0  0  0  0  0  0  0
   15.5497   70.6098   -9.8152 H   0  0  0  0  0  0  0  0  0  0  0  0
   21.7633   71.9159   -3.3719 O   0  0  0  0  0  0  0  0  0  0  0  0
   21.8076   73.4035   -4.0029 P   0  0  2  0  0  0  0  0  0  0  0  0
   22.9549   73.2910   -5.1381 O   0  0  0  0  0  0  0  0  0  0  0  0
   22.0379   74.4926   -2.9956 O   0  0  0  0  0  0  0  0  0  0  0  0
   20.4279   73.5377   -4.8296 O   0  0  0  0  0  0  0  0  0  0  0  0
   19.9454   74.2958   -7.0226 O   0  0  0  0  0  0  0  0  0  0  0  0
   16.7375   75.9630   -5.0273 O   0  0  0  0  0  0  0  0  0  0  0  0
   16.3156   73.7099   -6.7576 O   0  0  0  0  0  0  0  0  0  0  0  0
   19.3448   75.9004   -3.7714 O   0  0  0  0  0  0  0  0  0  0  0  0
   17.7305   74.9698   -5.2975 C   0  0  1  0  0  0  0  0  0  0  0  0
   17.5251   74.4626   -6.7263 C   0  0  1  0  0  0  0  0  0  0  0  0
   19.1160   75.5941   -5.1426 C   0  0  2  0  0  0  0  0  0  0  0  0
   18.7063   73.5950   -7.1813 C   0  0  1  0  0  0  0  0  0  0  0  0
   20.2144   74.6691   -5.6697 C   0  0  1  0  0  0  0  0  0  0  0  0
   15.8554   75.5729   -5.1235 H   0  0  0  0  0  0  0  0  0  0  0  0
   15.5777   74.2691   -6.4676 H   0  0  0  0  0  0  0  0  0  0  0  0
   18.6430   76.4867   -3.4497 H   0  0  0  0  0  0  0  0  0  0  0  0
   17.7429   74.1341   -9.3003 O   0  0  0  0  0  0  0  0  0  0  0  0
   18.5979   73.2086   -8.6548 C   0  0  0  0  0  0  0  0  0  0  0  0
   17.6648   73.9008  -10.2390 H   0  0  0  0  0  0  0  0  0  0  0  0
 25 28  1  0
 25 24  1  0
 25 26  1  6
 25 27  2  0
  1  4  1  0
  1 24  1  0
  1  2  1  1
  1  3  2  0
  6 11  1  0
  6 12  1  0
 29 36  1  0
 29 37  1  0
  9  7  1  1
  7 13  1  0
 10  8  1  1
  8 14  1  0
 37 28  1  1
  4  5  1  0
 33 30  1  6
 30 38  1  0
 34 31  1  1
 31 39  1  0
 35 32  1  1
 32 40  1  0
 41 42  1  0
 41 43  1  0
 15 19  2  0
 16 22  2  0
 12 17  1  6
 17 19  1  0
 17 20  1  0
 18 19  1  0
 18 22  1  0
 18 23  1  0
  9 10  1  0
  9 11  1  0
 10 12  1  0
 11  5  1  6
 33 34  1  0
 33 35  1  0
 34 36  1  0
 35 37  1  0
 36 42  1  6
 20 21  2  0
 21 22  1  0
M  CHG  2   2  -1  26  -1
M  END
>  <COMPND>  (111) 
    8629 

>  <AUTHOR>  (111) 
    GENERATED BY OPEN BABEL 3.1.1

>  <MASTER>  (111) 
        0    0    0    0    0    0    0    0   58    0   58    0

>  <minimizedAffinity>  (111) 
-7.23274

>  <CNNscore>  (111) 
0.4215312600

>  <CNNaffinity>  (111) 
3.9736380577

>  <CNN_VS>  (111) 
1.6750127077

>  <CNNaffinity_variance>  (111) 
0.7904947996

$$$$
112
     RDKit          3D

 43 45  0  0  0  0  0  0  0  0999 V2000
   18.8097   73.9400   -7.3474 P   0  0  2  0  0  0  0  0  0  0  0  0
   17.3906   73.9954   -6.5725 O   0  0  0  0  0  0  0  0  0  0  0  0
   19.1167   75.1402   -8.1940 O   0  0  0  0  0  0  0  0  0  0  0  0
   18.7722   72.5220   -8.1257 O   0  0  0  0  0  0  0  0  0  0  0  0
   18.9629   71.3344   -7.3767 C   0  0  0  0  0  0  0  0  0  0  0  0
   17.6318   69.3536   -7.0967 O   0  0  0  0  0  0  0  0  0  0  0  0
   16.9736   69.6101  -10.0108 O   0  0  0  0  0  0  0  0  0  0  0  0
   14.7452   70.6208   -8.8069 O   0  0  0  0  0  0  0  0  0  0  0  0
   17.1657   70.6337   -9.0357 C   0  0  1  0  0  0  0  0  0  0  0  0
   15.9706   70.7076   -8.1085 C   0  0  2  0  0  0  0  0  0  0  0  0
   18.2729   70.1810   -8.0920 C   0  0  1  0  0  0  0  0  0  0  0  0
   16.2076   69.5181   -7.1936 C   0  0  2  0  0  0  0  0  0  0  0  0
   16.2712   69.8767  -10.6251 H   0  0  0  0  0  0  0  0  0  0  0  0
   14.6408   71.4000   -9.3749 H   0  0  0  0  0  0  0  0  0  0  0  0
   13.6039   68.7677   -6.3962 O   0  0  0  0  0  0  0  0  0  0  0  0
   14.2574   70.3580   -2.1201 O   0  0  0  0  0  0  0  0  0  0  0  0
   15.6713   69.7238   -5.8777 N   0  0  0  0  0  0  0  0  0  0  0  0
   13.9315   69.5600   -4.2676 N   0  0  0  0  0  0  0  0  0  0  0  0
   14.3516   69.3111   -5.5805 C   0  0  0  0  0  0  0  0  0  0  0  0
   16.4516   70.3284   -4.8982 C   0  0  0  0  0  0  0  0  0  0  0  0
   16.0357   70.5597   -3.6513 C   0  0  0  0  0  0  0  0  0  0  0  0
   14.6692   70.1589   -3.2588 C   0  0  0  0  0  0  0  0  0  0  0  0
   13.0154   69.2813   -4.0377 H   0  0  0  0  0  0  0  0  0  0  0  0
   19.8656   73.6713   -6.1533 O   0  0  0  0  0  0  0  0  0  0  0  0
   21.4396   74.0181   -6.0300 P   0  0  2  0  0  0  0  0  0  0  0  0
   21.4508   75.6226   -5.8226 O   0  0  0  0  0  0  0  0  0  0  0  0
   22.2680   73.5374   -7.1861 O   0  0  0  0  0  0  0  0  0  0  0  0
   21.8790   73.4188   -4.5973 O   0  0  0  0  0  0  0  0  0  0  0  0
   20.0814   72.7534   -3.2036 O   0  0  0  0  0  0  0  0  0  0  0  0
   23.1200   72.7505   -0.4076 O   0  0  0  0  0  0  0  0  0  0  0  0
   22.0479   70.2544   -1.3391 O   0  0  0  0  0  0  0  0  0  0  0  0
   23.0372   74.8023   -2.4480 O   0  0  0  0  0  0  0  0  0  0  0  0
   22.5403   72.5667   -1.7020 C   0  0  1  0  0  0  0  0  0  0  0  0
   21.4340   71.5161   -1.5872 C   0  0  1  0  0  0  0  0  0  0  0  0
   21.9693   73.8979   -2.1869 C   0  0  2  0  0  0  0  0  0  0  0  0
   20.5906   71.4574   -2.8679 C   0  0  1  0  0  0  0  0  0  0  0  0
   21.1069   73.7205   -3.4379 C   0  0  1  0  0  0  0  0  0  0  0  0
   23.4849   71.9090   -0.0942 H   0  0  0  0  0  0  0  0  0  0  0  0
   22.5778   70.3051   -0.5281 H   0  0  0  0  0  0  0  0  0  0  0  0
   23.5754   74.9063   -1.6484 H   0  0  0  0  0  0  0  0  0  0  0  0
   19.7899   69.2132   -3.0454 O   0  0  0  0  0  0  0  0  0  0  0  0
   19.3865   70.5301   -2.7178 C   0  0  0  0  0  0  0  0  0  0  0  0
   19.0337   68.6119   -2.9541 H   0  0  0  0  0  0  0  0  0  0  0  0
 25 28  1  0
 25 24  1  0
 25 26  1  1
 25 27  2  0
  1  4  1  0
  1 24  1  0
  1  2  1  1
  1  3  2  0
  6 11  1  0
  6 12  1  0
 29 36  1  0
 29 37  1  0
  9  7  1  6
  7 13  1  0
 10  8  1  6
  8 14  1  0
 37 28  1  6
  4  5  1  0
 33 30  1  1
 30 38  1  0
 34 31  1  6
 31 39  1  0
 35 32  1  6
 32 40  1  0
 41 42  1  0
 41 43  1  0
 15 19  2  0
 16 22  2  0
 12 17  1  1
 17 19  1  0
 17 20  1  0
 18 19  1  0
 18 22  1  0
 18 23  1  0
  9 10  1  0
  9 11  1  0
 10 12  1  0
 11  5  1  1
 33 34  1  0
 33 35  1  0
 34 36  1  0
 35 37  1  0
 36 42  1  1
 20 21  2  0
 21 22  1  0
M  CHG  2   2  -1  26  -1
M  END
>  <COMPND>  (112) 
    8629 

>  <AUTHOR>  (112) 
    GENERATED BY OPEN BABEL 3.1.1

>  <MASTER>  (112) 
        0    0    0    0    0    0    0    0   58    0   58    0

>  <minimizedAffinity>  (112) 
-8.11215

>  <CNNscore>  (112) 
0.4171237350

>  <CNNaffinity>  (112) 
4.2120280266

>  <CNN_VS>  (112) 
1.7569369078

>  <CNNaffinity_variance>  (112) 
0.5250860453

$$$$
113
     RDKit          3D

 43 45  0  0  0  0  0  0  0  0999 V2000
   18.3605   74.4023   -7.5872 P   0  0  2  0  0  0  0  0  0  0  0  0
   17.8750   74.7670   -6.0876 O   0  0  0  0  0  0  0  0  0  0  0  0
   18.5295   75.5793   -8.5024 O   0  0  0  0  0  0  0  0  0  0  0  0
   17.3034   73.2788   -8.0753 O   0  0  0  0  0  0  0  0  0  0  0  0
   17.7809   72.1919   -8.8489 C   0  0  0  0  0  0  0  0  0  0  0  0
   17.2445   70.0444   -7.9139 O   0  0  0  0  0  0  0  0  0  0  0  0
   14.4165   70.5989   -8.7420 O   0  0  0  0  0  0  0  0  0  0  0  0
   14.3764   71.1644   -6.0746 O   0  0  0  0  0  0  0  0  0  0  0  0
   15.4063   71.5015   -8.2511 C   0  0  1  0  0  0  0  0  0  0  0  0
   15.6027   71.3072   -6.7620 C   0  0  2  0  0  0  0  0  0  0  0  0
   16.7557   71.0670   -8.8093 C   0  0  1  0  0  0  0  0  0  0  0  0
   16.4482   70.0457   -6.7177 C   0  0  2  0  0  0  0  0  0  0  0  0
   13.5458   70.8564   -8.3991 H   0  0  0  0  0  0  0  0  0  0  0  0
   13.8753   71.9928   -6.1316 H   0  0  0  0  0  0  0  0  0  0  0  0
   15.9457   68.5566   -4.3708 O   0  0  0  0  0  0  0  0  0  0  0  0
   19.8616   69.9865   -2.4056 O   0  0  0  0  0  0  0  0  0  0  0  0
   17.3198   70.0103   -5.5773 N   0  0  0  0  0  0  0  0  0  0  0  0
   17.8960   69.2696   -3.3943 N   0  0  0  0  0  0  0  0  0  0  0  0
   16.9744   69.2314   -4.4484 C   0  0  0  0  0  0  0  0  0  0  0  0
   18.5022   70.7422   -5.5858 C   0  0  0  0  0  0  0  0  0  0  0  0
   19.3697   70.7691   -4.5719 C   0  0  0  0  0  0  0  0  0  0  0  0
   19.0839   69.9825   -3.3547 C   0  0  0  0  0  0  0  0  0  0  0  0
   17.6762   68.7349   -2.5971 H   0  0  0  0  0  0  0  0  0  0  0  0
   19.7089   73.5473   -7.3349 O   0  0  0  0  0  0  0  0  0  0  0  0
   21.2032   74.0153   -6.9336 P   0  0  2  0  0  0  0  0  0  0  0  0
   21.1183   75.6294   -7.0053 O   0  0  0  0  0  0  0  0  0  0  0  0
   22.2853   73.4138   -7.7828 O   0  0  0  0  0  0  0  0  0  0  0  0
   21.3263   73.6831   -5.3590 O   0  0  0  0  0  0  0  0  0  0  0  0
   20.1691   74.9422   -3.7182 O   0  0  0  0  0  0  0  0  0  0  0  0
   23.2572   73.5003   -1.3868 O   0  0  0  0  0  0  0  0  0  0  0  0
   20.6095   72.4414   -1.0460 O   0  0  0  0  0  0  0  0  0  0  0  0
   23.7662   74.3057   -4.1203 O   0  0  0  0  0  0  0  0  0  0  0  0
   22.2791   73.4516   -2.4290 C   0  0  1  0  0  0  0  0  0  0  0  0
   20.8959   73.6181   -1.7967 C   0  0  1  0  0  0  0  0  0  0  0  0
   22.5541   74.5769   -3.4247 C   0  0  2  0  0  0  0  0  0  0  0  0
   19.8205   73.8433   -2.8681 C   0  0  1  0  0  0  0  0  0  0  0  0
   21.4013   74.7487   -4.4155 C   0  0  1  0  0  0  0  0  0  0  0  0
   23.0886   72.7880   -0.7514 H   0  0  0  0  0  0  0  0  0  0  0  0
   21.2962   72.3104   -0.3734 H   0  0  0  0  0  0  0  0  0  0  0  0
   24.4882   74.1994   -3.4821 H   0  0  0  0  0  0  0  0  0  0  0  0
   17.7969   72.9524   -1.9624 O   0  0  0  0  0  0  0  0  0  0  0  0
   18.4606   74.1684   -2.2540 C   0  0  0  0  0  0  0  0  0  0  0  0
   16.9300   73.1437   -1.5706 H   0  0  0  0  0  0  0  0  0  0  0  0
 25 28  1  0
 25 24  1  0
 25 26  1  1
 25 27  2  0
  1  4  1  0
  1 24  1  0
  1  2  1  1
  1  3  2  0
  6 11  1  0
  6 12  1  0
 29 36  1  0
 29 37  1  0
  9  7  1  6
  7 13  1  0
 10  8  1  1
  8 14  1  0
 37 28  1  1
  4  5  1  0
 33 30  1  1
 30 38  1  0
 34 31  1  6
 31 39  1  0
 35 32  1  6
 32 40  1  0
 41 42  1  0
 41 43  1  0
 15 19  2  0
 16 22  2  0
 12 17  1  1
 17 19  1  0
 17 20  1  0
 18 19  1  0
 18 22  1  0
 18 23  1  0
  9 10  1  0
  9 11  1  0
 10 12  1  0
 11  5  1  1
 33 34  1  0
 33 35  1  0
 34 36  1  0
 35 37  1  0
 36 42  1  1
 20 21  2  0
 21 22  1  0
M  CHG  2   2  -1  26  -1
M  END
>  <COMPND>  (113) 
    8629 

>  <AUTHOR>  (113) 
    GENERATED BY OPEN BABEL 3.1.1

>  <MASTER>  (113) 
        0    0    0    0    0    0    0    0   58    0   58    0

>  <minimizedAffinity>  (113) 
-6.43844

>  <CNNscore>  (113) 
0.4161423743

>  <CNNaffinity>  (113) 
4.0669918060

>  <CNN_VS>  (113) 
1.6924476624

>  <CNNaffinity_variance>  (113) 
0.3954381943

$$$$
114
     RDKit          3D

 43 45  0  0  0  0  0  0  0  0999 V2000
   21.1415   74.6451   -6.8645 P   0  0  2  0  0  0  0  0  0  0  0  0
   19.7590   75.3386   -7.3393 O   0  0  0  0  0  0  0  0  0  0  0  0
   22.3881   75.3793   -7.2625 O   0  0  0  0  0  0  0  0  0  0  0  0
   21.0188   73.1248   -7.4043 O   0  0  0  0  0  0  0  0  0  0  0  0
   19.9853   72.8148   -8.3228 C   0  0  0  0  0  0  0  0  0  0  0  0
   18.1505   71.4798   -7.5319 O   0  0  0  0  0  0  0  0  0  0  0  0
   19.4693   69.1764   -8.9269 O   0  0  0  0  0  0  0  0  0  0  0  0
   17.4964   69.8785  -10.6737 O   0  0  0  0  0  0  0  0  0  0  0  0
   19.3997   70.5471   -9.3166 C   0  0  1  0  0  0  0  0  0  0  0  0
   18.0111   70.8805   -9.8206 C   0  0  2  0  0  0  0  0  0  0  0  0
   19.4938   71.3985   -8.0567 C   0  0  1  0  0  0  0  0  0  0  0  0
   17.2271   71.0048   -8.5252 C   0  0  2  0  0  0  0  0  0  0  0  0
   19.4116   68.6130   -9.7150 H   0  0  0  0  0  0  0  0  0  0  0  0
   18.0286   69.8384  -11.4835 H   0  0  0  0  0  0  0  0  0  0  0  0
   14.5910   70.4786   -7.6581 O   0  0  0  0  0  0  0  0  0  0  0  0
   13.1282   74.6432   -8.9839 O   0  0  0  0  0  0  0  0  0  0  0  0
   16.1377   71.9339   -8.6313 N   0  0  0  0  0  0  0  0  0  0  0  0
   13.8648   72.5527   -8.3188 N   0  0  0  0  0  0  0  0  0  0  0  0
   14.8521   71.5709   -8.1665 C   0  0  0  0  0  0  0  0  0  0  0  0
   16.3495   73.1892   -9.1908 C   0  0  0  0  0  0  0  0  0  0  0  0
   15.3970   74.1138   -9.3301 C   0  0  0  0  0  0  0  0  0  0  0  0
   14.0258   73.8142   -8.8697 C   0  0  0  0  0  0  0  0  0  0  0  0
   12.9613   72.3220   -8.0024 H   0  0  0  0  0  0  0  0  0  0  0  0
   20.9371   74.4819   -5.2693 O   0  0  0  0  0  0  0  0  0  0  0  0
   21.5051   73.3783   -4.2338 P   0  0  2  0  0  0  0  0  0  0  0  0
   23.0286   73.1535   -4.7298 O   0  0  0  0  0  0  0  0  0  0  0  0
   20.6856   72.1224   -4.1622 O   0  0  0  0  0  0  0  0  0  0  0  0
   21.6447   74.1667   -2.8324 O   0  0  0  0  0  0  0  0  0  0  0  0
   23.4986   74.9639   -1.5898 O   0  0  0  0  0  0  0  0  0  0  0  0
   21.2259   73.4555    1.5102 O   0  0  0  0  0  0  0  0  0  0  0  0
   21.4615   76.2983    1.1776 O   0  0  0  0  0  0  0  0  0  0  0  0
   21.3351   72.0489   -1.0174 O   0  0  0  0  0  0  0  0  0  0  0  0
   21.4511   74.0936    0.2503 C   0  0  1  0  0  0  0  0  0  0  0  0
   22.2817   75.3552    0.4934 C   0  0  1  0  0  0  0  0  0  0  0  0
   22.1951   73.1294   -0.6717 C   0  0  2  0  0  0  0  0  0  0  0  0
   22.7888   75.9478   -0.8283 C   0  0  1  0  0  0  0  0  0  0  0  0
   22.6991   73.8308   -1.9343 C   0  0  1  0  0  0  0  0  0  0  0  0
   20.7534   74.0622    2.1002 H   0  0  0  0  0  0  0  0  0  0  0  0
   21.1475   75.9116    2.0101 H   0  0  0  0  0  0  0  0  0  0  0  0
   21.0231   71.6129   -0.2097 H   0  0  0  0  0  0  0  0  0  0  0  0
   24.2981   76.9972    0.6980 O   0  0  0  0  0  0  0  0  0  0  0  0
   23.7484   77.1139   -0.6014 C   0  0  0  0  0  0  0  0  0  0  0  0
   24.9111   77.7326    0.8563 H   0  0  0  0  0  0  0  0  0  0  0  0
 25 28  1  0
 25 24  1  0
 25 26  1  6
 25 27  2  0
  1  4  1  0
  1 24  1  0
  1  2  1  6
  1  3  2  0
  6 11  1  0
  6 12  1  0
 29 36  1  0
 29 37  1  0
  9  7  1  1
  7 13  1  0
 10  8  1  6
  8 14  1  0
 37 28  1  6
  4  5  1  0
 33 30  1  1
 30 38  1  0
 34 31  1  6
 31 39  1  0
 35 32  1  6
 32 40  1  0
 41 42  1  0
 41 43  1  0
 15 19  2  0
 16 22  2  0
 12 17  1  6
 17 19  1  0
 17 20  1  0
 18 19  1  0
 18 22  1  0
 18 23  1  0
  9 10  1  0
  9 11  1  0
 10 12  1  0
 11  5  1  6
 33 34  1  0
 33 35  1  0
 34 36  1  0
 35 37  1  0
 36 42  1  1
 20 21  2  0
 21 22  1  0
M  CHG  2   2  -1  26  -1
M  END
>  <COMPND>  (114) 
    8629 

>  <AUTHOR>  (114) 
    GENERATED BY OPEN BABEL 3.1.1

>  <MASTER>  (114) 
        0    0    0    0    0    0    0    0   58    0   58    0

>  <minimizedAffinity>  (114) 
-6.94069

>  <CNNscore>  (114) 
0.3730941415

>  <CNNaffinity>  (114) 
3.9248862267

>  <CNN_VS>  (114) 
1.4643520117

>  <CNNaffinity_variance>  (114) 
0.1410695612

$$$$
115
     RDKit          3D

 43 45  0  0  0  0  0  0  0  0999 V2000
   20.5841   73.6290   -6.4303 P   0  0  2  0  0  0  0  0  0  0  0  0
   22.1284   73.3081   -6.7905 O   0  0  0  0  0  0  0  0  0  0  0  0
   20.0241   74.8595   -7.0811 O   0  0  0  0  0  0  0  0  0  0  0  0
   20.5511   73.6126   -4.8128 O   0  0  0  0  0  0  0  0  0  0  0  0
   19.2976   73.4912   -4.1633 C   0  0  0  0  0  0  0  0  0  0  0  0
   18.2535   71.9920   -2.6025 O   0  0  0  0  0  0  0  0  0  0  0  0
   21.0237   71.3564   -1.6470 O   0  0  0  0  0  0  0  0  0  0  0  0
   20.4436   69.2261   -3.2475 O   0  0  0  0  0  0  0  0  0  0  0  0
   20.5678   71.6382   -2.9691 C   0  0  1  0  0  0  0  0  0  0  0  0
   19.8035   70.4549   -3.5252 C   0  0  2  0  0  0  0  0  0  0  0  0
   19.4815   72.7023   -2.8741 C   0  0  1  0  0  0  0  0  0  0  0  0
   18.4629   70.5876   -2.8230 C   0  0  2  0  0  0  0  0  0  0  0  0
   21.7183   70.6795   -1.6820 H   0  0  0  0  0  0  0  0  0  0  0  0
   21.2916   69.1898   -3.7168 H   0  0  0  0  0  0  0  0  0  0  0  0
   15.7528   70.6284   -2.0280 O   0  0  0  0  0  0  0  0  0  0  0  0
   14.3886   68.5818   -5.9257 O   0  0  0  0  0  0  0  0  0  0  0  0
   17.3786   70.0725   -3.6107 N   0  0  0  0  0  0  0  0  0  0  0  0
   15.0757   69.6095   -3.9695 N   0  0  0  0  0  0  0  0  0  0  0  0
   16.0541   70.1407   -3.1194 C   0  0  0  0  0  0  0  0  0  0  0  0
   17.6337   69.5078   -4.8557 C   0  0  0  0  0  0  0  0  0  0  0  0
   16.6897   69.0045   -5.6536 C   0  0  0  0  0  0  0  0  0  0  0  0
   15.2796   69.0367   -5.2149 C   0  0  0  0  0  0  0  0  0  0  0  0
   14.1457   69.6457   -3.6480 H   0  0  0  0  0  0  0  0  0  0  0  0
   19.8265   72.2561   -6.8231 O   0  0  0  0  0  0  0  0  0  0  0  0
   19.3583   71.6748   -8.2569 P   0  0  2  0  0  0  0  0  0  0  0  0
   19.1505   70.0966   -7.9675 O   0  0  0  0  0  0  0  0  0  0  0  0
   20.3040   71.9786   -9.3826 O   0  0  0  0  0  0  0  0  0  0  0  0
   17.8651   72.2514   -8.4636 O   0  0  0  0  0  0  0  0  0  0  0  0
   16.8429   73.2190   -6.5569 O   0  0  0  0  0  0  0  0  0  0  0  0
   13.4920   72.7118   -8.9159 O   0  0  0  0  0  0  0  0  0  0  0  0
   14.5413   75.3514   -8.4921 O   0  0  0  0  0  0  0  0  0  0  0  0
   15.5710   70.6975   -8.9085 O   0  0  0  0  0  0  0  0  0  0  0  0
   14.8704   72.9877   -8.6525 C   0  0  1  0  0  0  0  0  0  0  0  0
   14.9482   74.2124   -7.7387 C   0  0  1  0  0  0  0  0  0  0  0  0
   15.5026   71.7721   -7.9773 C   0  0  2  0  0  0  0  0  0  0  0  0
   16.3704   74.4100   -7.1972 C   0  0  1  0  0  0  0  0  0  0  0  0
   16.8957   72.0901   -7.4313 C   0  0  1  0  0  0  0  0  0  0  0  0
   13.0848   73.4796   -9.3451 H   0  0  0  0  0  0  0  0  0  0  0  0
   13.6419   75.2135   -8.8287 H   0  0  0  0  0  0  0  0  0  0  0  0
   14.6828   70.5057   -9.2465 H   0  0  0  0  0  0  0  0  0  0  0  0
   17.6601   76.2239   -6.3280 O   0  0  0  0  0  0  0  0  0  0  0  0
   16.4374   75.5300   -6.1612 C   0  0  0  0  0  0  0  0  0  0  0  0
   17.7165   76.9399   -5.6754 H   0  0  0  0  0  0  0  0  0  0  0  0
 25 28  1  0
 25 24  1  0
 25 26  1  1
 25 27  2  0
  1  4  1  0
  1 24  1  0
  1  2  1  1
  1  3  2  0
  6 11  1  0
  6 12  1  0
 29 36  1  0
 29 37  1  0
  9  7  1  1
  7 13  1  0
 10  8  1  1
  8 14  1  0
 37 28  1  6
  4  5  1  0
 33 30  1  1
 30 38  1  0
 34 31  1  6
 31 39  1  0
 35 32  1  6
 32 40  1  0
 41 42  1  0
 41 43  1  0
 15 19  2  0
 16 22  2  0
 12 17  1  6
 17 19  1  0
 17 20  1  0
 18 19  1  0
 18 22  1  0
 18 23  1  0
  9 10  1  0
  9 11  1  0
 10 12  1  0
 11  5  1  6
 33 34  1  0
 33 35  1  0
 34 36  1  0
 35 37  1  0
 36 42  1  1
 20 21  2  0
 21 22  1  0
M  CHG  2   2  -1  26  -1
M  END
>  <COMPND>  (115) 
    8629 

>  <AUTHOR>  (115) 
    GENERATED BY OPEN BABEL 3.1.1

>  <MASTER>  (115) 
        0    0    0    0    0    0    0    0   58    0   58    0

>  <minimizedAffinity>  (115) 
-6.95616

>  <CNNscore>  (115) 
0.3654518127

>  <CNNaffinity>  (115) 
3.9614334106

>  <CNN_VS>  (115) 
1.4477130175

>  <CNNaffinity_variance>  (115) 
0.6624260545

$$$$
116
     RDKit          3D

 43 45  0  0  0  0  0  0  0  0999 V2000
   21.8639   71.3442   -2.2565 P   0  0  2  0  0  0  0  0  0  0  0  0
   22.5924   70.9373   -3.6426 O   0  0  0  0  0  0  0  0  0  0  0  0
   21.8631   70.2754   -1.2034 O   0  0  0  0  0  0  0  0  0  0  0  0
   20.4073   71.8716   -2.7235 O   0  0  0  0  0  0  0  0  0  0  0  0
   19.6904   71.1155   -3.6838 C   0  0  0  0  0  0  0  0  0  0  0  0
   17.5956   71.7675   -4.6638 O   0  0  0  0  0  0  0  0  0  0  0  0
   16.2924   70.3125   -2.3889 O   0  0  0  0  0  0  0  0  0  0  0  0
   16.0746   68.5274   -4.4388 O   0  0  0  0  0  0  0  0  0  0  0  0
   17.4848   69.9887   -3.1020 C   0  0  1  0  0  0  0  0  0  0  0  0
   17.1457   69.4483   -4.4755 C   0  0  2  0  0  0  0  0  0  0  0  0
   18.1979   71.2920   -3.4401 C   0  0  1  0  0  0  0  0  0  0  0  0
   16.8002   70.7169   -5.2368 C   0  0  2  0  0  0  0  0  0  0  0  0
   15.8198   69.4958   -2.1617 H   0  0  0  0  0  0  0  0  0  0  0  0
   16.3437   67.7378   -3.9440 H   0  0  0  0  0  0  0  0  0  0  0  0
   14.9413   69.9394   -7.2161 O   0  0  0  0  0  0  0  0  0  0  0  0
   18.0673   70.3584  -10.5767 O   0  0  0  0  0  0  0  0  0  0  0  0
   17.1013   70.6147   -6.6368 N   0  0  0  0  0  0  0  0  0  0  0  0
   16.4993   70.1488   -8.8879 N   0  0  0  0  0  0  0  0  0  0  0  0
   16.0962   70.2144   -7.5480 C   0  0  0  0  0  0  0  0  0  0  0  0
   18.3810   70.9100   -7.0938 C   0  0  0  0  0  0  0  0  0  0  0  0
   18.7496   70.8414   -8.3747 C   0  0  0  0  0  0  0  0  0  0  0  0
   17.7593   70.4312   -9.3911 C   0  0  0  0  0  0  0  0  0  0  0  0
   15.8159   69.8719   -9.5406 H   0  0  0  0  0  0  0  0  0  0  0  0
   22.6246   72.7060   -1.8324 O   0  0  0  0  0  0  0  0  0  0  0  0
   22.0836   74.2220   -1.6839 P   0  0  2  0  0  0  0  0  0  0  0  0
   23.3709   75.0215   -1.1170 O   0  0  0  0  0  0  0  0  0  0  0  0
   20.8502   74.3552   -0.8385 O   0  0  0  0  0  0  0  0  0  0  0  0
   21.9143   74.7457   -3.2012 O   0  0  0  0  0  0  0  0  0  0  0  0
   22.6119   73.8024   -5.2604 O   0  0  0  0  0  0  0  0  0  0  0  0
   23.3176   77.7862   -6.0867 O   0  0  0  0  0  0  0  0  0  0  0  0
   21.1041   76.4493   -7.3363 O   0  0  0  0  0  0  0  0  0  0  0  0
   23.8748   76.7385   -3.4464 O   0  0  0  0  0  0  0  0  0  0  0  0
   22.6242   76.6793   -5.5040 C   0  0  1  0  0  0  0  0  0  0  0  0
   22.1400   75.7683   -6.6338 C   0  0  1  0  0  0  0  0  0  0  0  0
   23.5762   75.9262   -4.5767 C   0  0  2  0  0  0  0  0  0  0  0  0
   21.6237   74.4314   -6.0847 C   0  0  1  0  0  0  0  0  0  0  0  0
   22.9863   74.5883   -4.1272 C   0  0  1  0  0  0  0  0  0  0  0  0
   22.7185   78.2689   -6.6763 H   0  0  0  0  0  0  0  0  0  0  0  0
   21.4430   77.2919   -7.6774 H   0  0  0  0  0  0  0  0  0  0  0  0
   24.2479   77.5823   -3.7443 H   0  0  0  0  0  0  0  0  0  0  0  0
   22.4452   73.2320   -7.9809 O   0  0  0  0  0  0  0  0  0  0  0  0
   21.2829   73.4477   -7.2019 C   0  0  0  0  0  0  0  0  0  0  0  0
   22.2433   72.6076   -8.6957 H   0  0  0  0  0  0  0  0  0  0  0  0
 25 28  1  0
 25 24  1  0
 25 26  1  1
 25 27  2  0
  1  4  1  0
  1 24  1  0
  1  2  1  6
  1  3  2  0
  6 11  1  0
  6 12  1  0
 29 36  1  0
 29 37  1  0
  9  7  1  1
  7 13  1  0
 10  8  1  1
  8 14  1  0
 37 28  1  1
  4  5  1  0
 33 30  1  6
 30 38  1  0
 34 31  1  1
 31 39  1  0
 35 32  1  1
 32 40  1  0
 41 42  1  0
 41 43  1  0
 15 19  2  0
 16 22  2  0
 12 17  1  6
 17 19  1  0
 17 20  1  0
 18 19  1  0
 18 22  1  0
 18 23  1  0
  9 10  1  0
  9 11  1  0
 10 12  1  0
 11  5  1  6
 33 34  1  0
 33 35  1  0
 34 36  1  0
 35 37  1  0
 36 42  1  6
 20 21  2  0
 21 22  1  0
M  CHG  2   2  -1  26  -1
M  END
>  <COMPND>  (116) 
    8629 

>  <AUTHOR>  (116) 
    GENERATED BY OPEN BABEL 3.1.1

>  <MASTER>  (116) 
        0    0    0    0    0    0    0    0   58    0   58    0

>  <minimizedAffinity>  (116) 
-7.08730

>  <CNNscore>  (116) 
0.3509097993

>  <CNNaffinity>  (116) 
4.1040625572

>  <CNN_VS>  (116) 
1.4401557446

>  <CNNaffinity_variance>  (116) 
0.4180507660

$$$$
117
     RDKit          3D

 43 45  0  0  0  0  0  0  0  0999 V2000
   20.0994   73.9370   -2.3003 P   0  0  2  0  0  0  0  0  0  0  0  0
   18.6994   74.7079   -2.0492 O   0  0  0  0  0  0  0  0  0  0  0  0
   20.9650   74.5287   -3.3737 O   0  0  0  0  0  0  0  0  0  0  0  0
   19.6598   72.3958   -2.5222 O   0  0  0  0  0  0  0  0  0  0  0  0
   19.0862   72.0285   -3.7647 C   0  0  0  0  0  0  0  0  0  0  0  0
   16.9323   71.8776   -4.8191 O   0  0  0  0  0  0  0  0  0  0  0  0
   16.1027   70.2198   -2.4623 O   0  0  0  0  0  0  0  0  0  0  0  0
   16.5688   68.3368   -4.3790 O   0  0  0  0  0  0  0  0  0  0  0  0
   17.3609   70.2685   -3.1330 C   0  0  1  0  0  0  0  0  0  0  0  0
   17.2730   69.5587   -4.4679 C   0  0  2  0  0  0  0  0  0  0  0  0
   17.6120   71.7106   -3.5555 C   0  0  1  0  0  0  0  0  0  0  0  0
   16.5540   70.5868   -5.3247 C   0  0  2  0  0  0  0  0  0  0  0  0
   15.9207   69.3084   -2.1826 H   0  0  0  0  0  0  0  0  0  0  0  0
   17.0665   67.7163   -3.8239 H   0  0  0  0  0  0  0  0  0  0  0  0
   15.0083   71.6095   -7.4562 O   0  0  0  0  0  0  0  0  0  0  0  0
   18.0735   70.2007  -10.5965 O   0  0  0  0  0  0  0  0  0  0  0  0
   16.9244   70.5014   -6.7092 N   0  0  0  0  0  0  0  0  0  0  0  0
   16.5359   70.9073   -9.0180 N   0  0  0  0  0  0  0  0  0  0  0  0
   16.0770   71.0462   -7.7019 C   0  0  0  0  0  0  0  0  0  0  0  0
   18.1165   69.8833   -7.0708 C   0  0  0  0  0  0  0  0  0  0  0  0
   18.5392   69.7579   -8.3305 C   0  0  0  0  0  0  0  0  0  0  0  0
   17.7124   70.3002   -9.4279 C   0  0  0  0  0  0  0  0  0  0  0  0
   15.9617   71.2790   -9.7265 H   0  0  0  0  0  0  0  0  0  0  0  0
   20.7711   73.9152   -0.8302 O   0  0  0  0  0  0  0  0  0  0  0  0
   22.1767   73.3060   -0.3142 P   0  0  2  0  0  0  0  0  0  0  0  0
   23.2752   74.2782   -0.9965 O   0  0  0  0  0  0  0  0  0  0  0  0
   22.3649   71.8483   -0.6201 O   0  0  0  0  0  0  0  0  0  0  0  0
   22.2283   73.6718    1.2569 O   0  0  0  0  0  0  0  0  0  0  0  0
   21.8763   75.8745    2.0575 O   0  0  0  0  0  0  0  0  0  0  0  0
   24.1351   74.3908    5.1796 O   0  0  0  0  0  0  0  0  0  0  0  0
   21.3242   74.8452    5.5538 O   0  0  0  0  0  0  0  0  0  0  0  0
   24.7651   73.6382    2.4563 O   0  0  0  0  0  0  0  0  0  0  0  0
   23.1715   74.3300    4.1245 C   0  0  1  0  0  0  0  0  0  0  0  0
   22.0579   75.3325    4.4338 C   0  0  1  0  0  0  0  0  0  0  0  0
   23.8553   74.6765    2.8033 C   0  0  2  0  0  0  0  0  0  0  0  0
   21.1290   75.5185    3.2264 C   0  0  1  0  0  0  0  0  0  0  0  0
   22.8389   74.8883    1.6798 C   0  0  1  0  0  0  0  0  0  0  0  0
   23.7075   74.1713    6.0213 H   0  0  0  0  0  0  0  0  0  0  0  0
   21.9223   74.7317    6.3091 H   0  0  0  0  0  0  0  0  0  0  0  0
   25.4035   73.5141    3.1753 H   0  0  0  0  0  0  0  0  0  0  0  0
   19.1158   76.5443    2.4493 O   0  0  0  0  0  0  0  0  0  0  0  0
   20.1063   76.6288    3.4574 C   0  0  0  0  0  0  0  0  0  0  0  0
   18.4579   77.2448    2.5838 H   0  0  0  0  0  0  0  0  0  0  0  0
 25 28  1  0
 25 24  1  0
 25 26  1  6
 25 27  2  0
  1  4  1  0
  1 24  1  0
  1  2  1  1
  1  3  2  0
  6 11  1  0
  6 12  1  0
 29 36  1  0
 29 37  1  0
  9  7  1  6
  7 13  1  0
 10  8  1  1
  8 14  1  0
 37 28  1  1
  4  5  1  0
 33 30  1  1
 30 38  1  0
 34 31  1  1
 31 39  1  0
 35 32  1  6
 32 40  1  0
 41 42  1  0
 41 43  1  0
 15 19  2  0
 16 22  2  0
 12 17  1  6
 17 19  1  0
 17 20  1  0
 18 19  1  0
 18 22  1  0
 18 23  1  0
  9 10  1  0
  9 11  1  0
 10 12  1  0
 11  5  1  6
 33 34  1  0
 33 35  1  0
 34 36  1  0
 35 37  1  0
 36 42  1  1
 20 21  2  0
 21 22  1  0
M  CHG  2   2  -1  26  -1
M  END
>  <COMPND>  (117) 
    8629 

>  <AUTHOR>  (117) 
    GENERATED BY OPEN BABEL 3.1.1

>  <MASTER>  (117) 
        0    0    0    0    0    0    0    0   58    0   58    0

>  <minimizedAffinity>  (117) 
-7.20112

>  <CNNscore>  (117) 
0.3461955786

>  <CNNaffinity>  (117) 
4.0464382172

>  <CNN_VS>  (117) 
1.4008589983

>  <CNNaffinity_variance>  (117) 
0.0200138669

$$$$
118
     RDKit          3D

 43 45  0  0  0  0  0  0  0  0999 V2000
   21.1291   71.3571   -1.9734 P   0  0  2  0  0  0  0  0  0  0  0  0
   22.3453   70.4932   -1.3474 O   0  0  0  0  0  0  0  0  0  0  0  0
   20.5647   72.4085   -1.0638 O   0  0  0  0  0  0  0  0  0  0  0  0
   20.0811   70.2367   -2.4875 O   0  0  0  0  0  0  0  0  0  0  0  0
   19.4648   70.4164   -3.7508 C   0  0  0  0  0  0  0  0  0  0  0  0
   17.5808   71.5075   -4.7676 O   0  0  0  0  0  0  0  0  0  0  0  0
   15.9366   70.3115   -2.5637 O   0  0  0  0  0  0  0  0  0  0  0  0
   15.4162   68.6498   -4.6624 O   0  0  0  0  0  0  0  0  0  0  0  0
   17.0572   69.7609   -3.2539 C   0  0  1  0  0  0  0  0  0  0  0  0
   16.6553   69.3289   -4.6487 C   0  0  2  0  0  0  0  0  0  0  0  0
   18.0344   70.8940   -3.5411 C   0  0  1  0  0  0  0  0  0  0  0  0
   16.6029   70.6559   -5.3867 C   0  0  2  0  0  0  0  0  0  0  0  0
   15.2986   69.6065   -2.3691 H   0  0  0  0  0  0  0  0  0  0  0  0
   15.5011   67.8123   -4.1806 H   0  0  0  0  0  0  0  0  0  0  0  0
   15.5674   72.3131   -7.4261 O   0  0  0  0  0  0  0  0  0  0  0  0
   17.8824   70.0412  -10.7003 O   0  0  0  0  0  0  0  0  0  0  0  0
   16.9186   70.5201   -6.7807 N   0  0  0  0  0  0  0  0  0  0  0  0
   16.7211   71.1806   -9.0547 N   0  0  0  0  0  0  0  0  0  0  0  0
   16.3441   71.4034   -7.7242 C   0  0  0  0  0  0  0  0  0  0  0  0
   17.7891   69.5199   -7.1999 C   0  0  0  0  0  0  0  0  0  0  0  0
   18.1374   69.3199   -8.4727 C   0  0  0  0  0  0  0  0  0  0  0  0
   17.5816   70.1995   -9.5212 C   0  0  0  0  0  0  0  0  0  0  0  0
   16.3330   71.7836   -9.7296 H   0  0  0  0  0  0  0  0  0  0  0  0
   21.7578   71.9253   -3.3499 O   0  0  0  0  0  0  0  0  0  0  0  0
   21.8555   73.4308   -3.9304 P   0  0  2  0  0  0  0  0  0  0  0  0
   22.8107   73.2676   -5.2260 O   0  0  0  0  0  0  0  0  0  0  0  0
   22.3336   74.4453   -2.9324 O   0  0  0  0  0  0  0  0  0  0  0  0
   20.3908   73.7298   -4.5389 O   0  0  0  0  0  0  0  0  0  0  0  0
   20.6762   75.8606   -5.5363 O   0  0  0  0  0  0  0  0  0  0  0  0
   16.7958   75.0922   -6.7207 O   0  0  0  0  0  0  0  0  0  0  0  0
   18.9172   74.9781   -8.6533 O   0  0  0  0  0  0  0  0  0  0  0  0
   17.6825   74.3040   -4.0802 O   0  0  0  0  0  0  0  0  0  0  0  0
   18.1494   74.7616   -6.3984 C   0  0  1  0  0  0  0  0  0  0  0  0
   19.0700   75.5300   -7.3486 C   0  0  1  0  0  0  0  0  0  0  0  0
   18.4268   75.1522   -4.9480 C   0  0  2  0  0  0  0  0  0  0  0  0
   20.5339   75.4373   -6.8972 C   0  0  1  0  0  0  0  0  0  0  0  0
   19.9181   75.0721   -4.6168 C   0  0  1  0  0  0  0  0  0  0  0  0
   16.6130   74.8463   -7.6403 H   0  0  0  0  0  0  0  0  0  0  0  0
   17.9884   75.0425   -8.9261 H   0  0  0  0  0  0  0  0  0  0  0  0
   16.7401   74.3640   -4.2998 H   0  0  0  0  0  0  0  0  0  0  0  0
   22.6170   75.5908   -8.0574 O   0  0  0  0  0  0  0  0  0  0  0  0
   21.4490   76.3245   -7.7384 C   0  0  0  0  0  0  0  0  0  0  0  0
   23.2087   76.1429   -8.5930 H   0  0  0  0  0  0  0  0  0  0  0  0
 25 28  1  0
 25 24  1  0
 25 26  1  6
 25 27  2  0
  1  4  1  0
  1 24  1  0
  1  2  1  1
  1  3  2  0
  6 11  1  0
  6 12  1  0
 29 36  1  0
 29 37  1  0
  9  7  1  1
  7 13  1  0
 10  8  1  1
  8 14  1  0
 37 28  1  6
  4  5  1  0
 33 30  1  6
 30 38  1  0
 34 31  1  6
 31 39  1  0
 35 32  1  1
 32 40  1  0
 41 42  1  0
 41 43  1  0
 15 19  2  0
 16 22  2  0
 12 17  1  6
 17 19  1  0
 17 20  1  0
 18 19  1  0
 18 22  1  0
 18 23  1  0
  9 10  1  0
  9 11  1  0
 10 12  1  0
 11  5  1  6
 33 34  1  0
 33 35  1  0
 34 36  1  0
 35 37  1  0
 36 42  1  6
 20 21  2  0
 21 22  1  0
M  CHG  2   2  -1  26  -1
M  END
>  <COMPND>  (118) 
    8629 

>  <AUTHOR>  (118) 
    GENERATED BY OPEN BABEL 3.1.1

>  <MASTER>  (118) 
        0    0    0    0    0    0    0    0   58    0   58    0

>  <minimizedAffinity>  (118) 
-7.05978

>  <CNNscore>  (118) 
0.3293493092

>  <CNNaffinity>  (118) 
3.9326393604

>  <CNN_VS>  (118) 
1.2952120304

>  <CNNaffinity_variance>  (118) 
0.6349020004

$$$$
119
     RDKit          3D

 43 45  0  0  0  0  0  0  0  0999 V2000
   21.3419   71.3611   -2.1311 P   0  0  2  0  0  0  0  0  0  0  0  0
   22.3535   71.2552   -3.3892 O   0  0  0  0  0  0  0  0  0  0  0  0
   21.9995   71.3138   -0.7833 O   0  0  0  0  0  0  0  0  0  0  0  0
   20.2434   70.2082   -2.4179 O   0  0  0  0  0  0  0  0  0  0  0  0
   19.5355   70.2390   -3.6449 C   0  0  0  0  0  0  0  0  0  0  0  0
   17.6974   71.4327   -4.6300 O   0  0  0  0  0  0  0  0  0  0  0  0
   16.0497   70.4058   -2.3450 O   0  0  0  0  0  0  0  0  0  0  0  0
   15.3480   68.7343   -4.3823 O   0  0  0  0  0  0  0  0  0  0  0  0
   17.1067   69.7630   -3.0556 C   0  0  1  0  0  0  0  0  0  0  0  0
   16.6302   69.3266   -4.4253 C   0  0  2  0  0  0  0  0  0  0  0  0
   18.1487   70.8189   -3.4028 C   0  0  1  0  0  0  0  0  0  0  0  0
   16.6438   70.6360   -5.1956 C   0  0  2  0  0  0  0  0  0  0  0  0
   15.3720   69.7512   -2.1121 H   0  0  0  0  0  0  0  0  0  0  0  0
   15.3916   67.9046   -3.8818 H   0  0  0  0  0  0  0  0  0  0  0  0
   15.2324   71.9320   -7.2707 O   0  0  0  0  0  0  0  0  0  0  0  0
   17.7235   69.8276  -10.5276 O   0  0  0  0  0  0  0  0  0  0  0  0
   16.9030   70.4456   -6.5949 N   0  0  0  0  0  0  0  0  0  0  0  0
   16.4740   70.8833   -8.8907 N   0  0  0  0  0  0  0  0  0  0  0  0
   16.1362   71.1439   -7.5566 C   0  0  0  0  0  0  0  0  0  0  0  0
   17.9082   69.5748   -7.0012 C   0  0  0  0  0  0  0  0  0  0  0  0
   18.2170   69.3363   -8.2776 C   0  0  0  0  0  0  0  0  0  0  0  0
   17.4635   70.0257   -9.3448 C   0  0  0  0  0  0  0  0  0  0  0  0
   15.9529   71.3582   -9.5782 H   0  0  0  0  0  0  0  0  0  0  0  0
   20.5263   72.7234   -2.4343 O   0  0  0  0  0  0  0  0  0  0  0  0
   21.0097   74.2657   -2.4645 P   0  0  2  0  0  0  0  0  0  0  0  0
   22.6205   74.1517   -2.3651 O   0  0  0  0  0  0  0  0  0  0  0  0
   20.3834   75.1276   -1.4067 O   0  0  0  0  0  0  0  0  0  0  0  0
   20.7280   74.7525   -3.9773 O   0  0  0  0  0  0  0  0  0  0  0  0
   19.1219   74.0993   -5.5930 O   0  0  0  0  0  0  0  0  0  0  0  0
   22.4080   74.5131   -8.0590 O   0  0  0  0  0  0  0  0  0  0  0  0
   20.2996   76.4601   -8.1676 O   0  0  0  0  0  0  0  0  0  0  0  0
   22.7240   73.3944   -5.4079 O   0  0  0  0  0  0  0  0  0  0  0  0
   21.5618   74.8327   -6.9512 C   0  0  1  0  0  0  0  0  0  0  0  0
   20.1822   75.2095   -7.4947 C   0  0  1  0  0  0  0  0  0  0  0  0
   21.4636   73.6174   -6.0311 C   0  0  2  0  0  0  0  0  0  0  0  0
   19.1488   75.3060   -6.3642 C   0  0  1  0  0  0  0  0  0  0  0  0
   20.3734   73.7966   -4.9731 C   0  0  1  0  0  0  0  0  0  0  0  0
   22.4750   75.2808   -8.6469 H   0  0  0  0  0  0  0  0  0  0  0  0
   20.9554   76.3857   -8.8786 H   0  0  0  0  0  0  0  0  0  0  0  0
   23.4055   73.2822   -6.0882 H   0  0  0  0  0  0  0  0  0  0  0  0
   16.9613   74.3761   -6.6076 O   0  0  0  0  0  0  0  0  0  0  0  0
   17.7352   75.5253   -6.8987 C   0  0  0  0  0  0  0  0  0  0  0  0
   16.0589   74.5016   -6.9417 H   0  0  0  0  0  0  0  0  0  0  0  0
 25 28  1  0
 25 24  1  0
 25 26  1  1
 25 27  2  0
  1  4  1  0
  1 24  1  0
  1  2  1  6
  1  3  2  0
  6 11  1  0
  6 12  1  0
 29 36  1  0
 29 37  1  0
  9  7  1  1
  7 13  1  0
 10  8  1  1
  8 14  1  0
 37 28  1  1
  4  5  1  0
 33 30  1  6
 30 38  1  0
 34 31  1  1
 31 39  1  0
 35 32  1  1
 32 40  1  0
 41 42  1  0
 41 43  1  0
 15 19  2  0
 16 22  2  0
 12 17  1  6
 17 19  1  0
 17 20  1  0
 18 19  1  0
 18 22  1  0
 18 23  1  0
  9 10  1  0
  9 11  1  0
 10 12  1  0
 11  5  1  6
 33 34  1  0
 33 35  1  0
 34 36  1  0
 35 37  1  0
 36 42  1  6
 20 21  2  0
 21 22  1  0
M  CHG  2   2  -1  26  -1
M  END
>  <COMPND>  (119) 
    8629 

>  <AUTHOR>  (119) 
    GENERATED BY OPEN BABEL 3.1.1

>  <MASTER>  (119) 
        0    0    0    0    0    0    0    0   58    0   58    0

>  <minimizedAffinity>  (119) 
-7.43370

>  <CNNscore>  (119) 
0.2749044895

>  <CNNaffinity>  (119) 
3.7862286568

>  <CNN_VS>  (119) 
1.0408512354

>  <CNNaffinity_variance>  (119) 
0.9649340510

$$$$
120
     RDKit          3D

 43 45  0  0  0  0  0  0  0  0999 V2000
   20.7893   73.2643   -6.6670 P   0  0  2  0  0  0  0  0  0  0  0  0
   22.3067   73.6654   -7.0596 O   0  0  0  0  0  0  0  0  0  0  0  0
   20.5620   72.9955   -5.2084 O   0  0  0  0  0  0  0  0  0  0  0  0
   20.4385   72.0436   -7.6694 O   0  0  0  0  0  0  0  0  0  0  0  0
   19.5196   72.2764   -8.7226 C   0  0  0  0  0  0  0  0  0  0  0  0
   18.9943   69.9981   -8.1683 O   0  0  0  0  0  0  0  0  0  0  0  0
   17.4763   69.9159  -10.7528 O   0  0  0  0  0  0  0  0  0  0  0  0
   15.4944   70.2502   -8.9098 O   0  0  0  0  0  0  0  0  0  0  0  0
   17.6215   70.9904   -9.8256 C   0  0  1  0  0  0  0  0  0  0  0  0
   16.7822   70.7363   -8.5908 C   0  0  2  0  0  0  0  0  0  0  0  0
   19.0370   70.9378   -9.2644 C   0  0  1  0  0  0  0  0  0  0  0  0
   17.6234   69.7163   -7.8425 C   0  0  2  0  0  0  0  0  0  0  0  0
   16.5800   69.9290  -11.1249 H   0  0  0  0  0  0  0  0  0  0  0  0
   14.9985   70.9352   -9.3848 H   0  0  0  0  0  0  0  0  0  0  0  0
   15.2182   69.1331   -6.4813 O   0  0  0  0  0  0  0  0  0  0  0  0
   17.0912   70.0940   -2.3814 O   0  0  0  0  0  0  0  0  0  0  0  0
   17.4546   69.8053   -6.4195 N   0  0  0  0  0  0  0  0  0  0  0  0
   16.1528   69.6118   -4.4410 N   0  0  0  0  0  0  0  0  0  0  0  0
   16.2052   69.4914   -5.8355 C   0  0  0  0  0  0  0  0  0  0  0  0
   18.5207   70.1998   -5.6185 C   0  0  0  0  0  0  0  0  0  0  0  0
   18.4540   70.3110   -4.2901 C   0  0  0  0  0  0  0  0  0  0  0  0
   17.1844   70.0013   -3.6015 C   0  0  0  0  0  0  0  0  0  0  0  0
   15.2923   69.3986   -4.0122 H   0  0  0  0  0  0  0  0  0  0  0  0
   19.9224   74.4889   -7.2685 O   0  0  0  0  0  0  0  0  0  0  0  0
   18.6877   75.3236   -6.6425 P   0  0  2  0  0  0  0  0  0  0  0  0
   18.4582   76.5097   -7.7186 O   0  0  0  0  0  0  0  0  0  0  0  0
   18.9159   75.7985   -5.2367 O   0  0  0  0  0  0  0  0  0  0  0  0
   17.4080   74.3566   -6.8224 O   0  0  0  0  0  0  0  0  0  0  0  0
   15.4518   75.5567   -7.4137 O   0  0  0  0  0  0  0  0  0  0  0  0
   13.7516   71.8825   -6.6014 O   0  0  0  0  0  0  0  0  0  0  0  0
   13.9543   72.7808   -9.3217 O   0  0  0  0  0  0  0  0  0  0  0  0
   15.9311   72.8583   -4.9653 O   0  0  0  0  0  0  0  0  0  0  0  0
   14.7670   72.7728   -7.0722 C   0  0  1  0  0  0  0  0  0  0  0  0
   14.1739   73.6256   -8.1954 C   0  0  1  0  0  0  0  0  0  0  0  0
   15.2324   73.6554   -5.9155 C   0  0  2  0  0  0  0  0  0  0  0  0
   15.1128   74.7806   -8.5688 C   0  0  1  0  0  0  0  0  0  0  0  0
   16.1210   74.8017   -6.4018 C   0  0  1  0  0  0  0  0  0  0  0  0
   13.4520   71.3189   -7.3309 H   0  0  0  0  0  0  0  0  0  0  0  0
   13.3602   72.0554   -9.0723 H   0  0  0  0  0  0  0  0  0  0  0  0
   15.3578   72.1365   -4.6650 H   0  0  0  0  0  0  0  0  0  0  0  0
   13.0739   75.5222   -9.5698 O   0  0  0  0  0  0  0  0  0  0  0  0
   14.4736   75.7347   -9.5754 C   0  0  0  0  0  0  0  0  0  0  0  0
   12.6537   76.1230  -10.2056 H   0  0  0  0  0  0  0  0  0  0  0  0
 25 28  1  0
 25 24  1  0
 25 26  1  6
 25 27  2  0
  1  4  1  0
  1 24  1  0
  1  2  1  1
  1  3  2  0
  6 11  1  0
  6 12  1  0
 29 36  1  0
 29 37  1  0
  9  7  1  6
  7 13  1  0
 10  8  1  6
  8 14  1  0
 37 28  1  6
  4  5  1  0
 33 30  1  1
 30 38  1  0
 34 31  1  6
 31 39  1  0
 35 32  1  1
 32 40  1  0
 41 42  1  0
 41 43  1  0
 15 19  2  0
 16 22  2  0
 12 17  1  1
 17 19  1  0
 17 20  1  0
 18 19  1  0
 18 22  1  0
 18 23  1  0
  9 10  1  0
  9 11  1  0
 10 12  1  0
 11  5  1  1
 33 34  1  0
 33 35  1  0
 34 36  1  0
 35 37  1  0
 36 42  1  6
 20 21  2  0
 21 22  1  0
M  CHG  2   2  -1  26  -1
M  END
>  <COMPND>  (120) 
    8629 

>  <AUTHOR>  (120) 
    GENERATED BY OPEN BABEL 3.1.1

>  <MASTER>  (120) 
        0    0    0    0    0    0    0    0   58    0   58    0

>  <minimizedAffinity>  (120) 
-6.84596

>  <CNNscore>  (120) 
0.2707715333

>  <CNNaffinity>  (120) 
3.8747622967

>  <CNN_VS>  (120) 
1.0491753817

>  <CNNaffinity_variance>  (120) 
0.6020634770

$$$$
121
     RDKit          3D

 43 45  0  0  0  0  0  0  0  0999 V2000
   18.9896   72.2560   -3.7582 P   0  0  2  0  0  0  0  0  0  0  0  0
   18.9476   73.7434   -3.1230 O   0  0  0  0  0  0  0  0  0  0  0  0
   18.7703   72.1938   -5.2412 O   0  0  0  0  0  0  0  0  0  0  0  0
   17.9386   71.4189   -2.8568 O   0  0  0  0  0  0  0  0  0  0  0  0
   17.3968   70.2217   -3.3868 C   0  0  0  0  0  0  0  0  0  0  0  0
   15.7658   71.0267   -4.9571 O   0  0  0  0  0  0  0  0  0  0  0  0
   13.7604   69.4188   -3.4131 O   0  0  0  0  0  0  0  0  0  0  0  0
   14.2589   67.8310   -5.5734 O   0  0  0  0  0  0  0  0  0  0  0  0
   15.1251   69.1206   -3.7032 C   0  0  1  0  0  0  0  0  0  0  0  0
   15.2778   68.7159   -5.1545 C   0  0  2  0  0  0  0  0  0  0  0  0
   15.9113   70.4247   -3.6522 C   0  0  1  0  0  0  0  0  0  0  0  0
   15.2150   70.0578   -5.8641 C   0  0  2  0  0  0  0  0  0  0  0  0
   13.2383   68.6011   -3.4395 H   0  0  0  0  0  0  0  0  0  0  0  0
   14.3415   66.9922   -5.0936 H   0  0  0  0  0  0  0  0  0  0  0  0
   14.2932   71.1148   -8.3159 O   0  0  0  0  0  0  0  0  0  0  0  0
   18.2295   70.0515  -10.4643 O   0  0  0  0  0  0  0  0  0  0  0  0
   15.9783   70.0706   -7.0801 N   0  0  0  0  0  0  0  0  0  0  0  0
   16.2540   70.5847   -9.3836 N   0  0  0  0  0  0  0  0  0  0  0  0
   15.4226   70.6243   -8.2570 C   0  0  0  0  0  0  0  0  0  0  0  0
   17.2630   69.5385   -7.0974 C   0  0  0  0  0  0  0  0  0  0  0  0
   18.0424   69.5072   -8.1804 C   0  0  0  0  0  0  0  0  0  0  0  0
   17.5372   70.0655   -9.4512 C   0  0  0  0  0  0  0  0  0  0  0  0
   15.8878   70.9644  -10.2151 H   0  0  0  0  0  0  0  0  0  0  0  0
   20.4217   71.6908   -3.2656 O   0  0  0  0  0  0  0  0  0  0  0  0
   21.5261   72.3221   -2.2683 P   0  0  2  0  0  0  0  0  0  0  0  0
   22.7925   71.3303   -2.4415 O   0  0  0  0  0  0  0  0  0  0  0  0
   21.0553   72.4839   -0.8519 O   0  0  0  0  0  0  0  0  0  0  0  0
   21.9834   73.6956   -2.9821 O   0  0  0  0  0  0  0  0  0  0  0  0
   22.6816   73.2321   -5.1989 O   0  0  0  0  0  0  0  0  0  0  0  0
   23.6992   77.2295   -5.0088 O   0  0  0  0  0  0  0  0  0  0  0  0
   21.4396   76.4149   -6.5832 O   0  0  0  0  0  0  0  0  0  0  0  0
   24.0892   75.5288   -2.6990 O   0  0  0  0  0  0  0  0  0  0  0  0
   22.9087   76.0714   -4.7272 C   0  0  1  0  0  0  0  0  0  0  0  0
   22.3993   75.5043   -6.0537 C   0  0  1  0  0  0  0  0  0  0  0  0
   23.7719   75.0429   -3.9989 C   0  0  2  0  0  0  0  0  0  0  0  0
   21.7699   74.1184   -5.8585 C   0  0  1  0  0  0  0  0  0  0  0  0
   23.0724   73.6859   -3.9015 C   0  0  1  0  0  0  0  0  0  0  0  0
   23.1569   77.8867   -5.4708 H   0  0  0  0  0  0  0  0  0  0  0  0
   21.8496   77.2862   -6.7012 H   0  0  0  0  0  0  0  0  0  0  0  0
   24.5318   76.3880   -2.7743 H   0  0  0  0  0  0  0  0  0  0  0  0
   22.4238   73.7393   -8.1251 O   0  0  0  0  0  0  0  0  0  0  0  0
   21.3977   73.4667   -7.1885 C   0  0  0  0  0  0  0  0  0  0  0  0
   22.2006   73.3304   -8.9764 H   0  0  0  0  0  0  0  0  0  0  0  0
 25 28  1  0
 25 24  1  0
 25 26  1  1
 25 27  2  0
  1  4  1  0
  1 24  1  0
  1  2  1  1
  1  3  2  0
  6 11  1  0
  6 12  1  0
 29 36  1  0
 29 37  1  0
  9  7  1  6
  7 13  1  0
 10  8  1  6
  8 14  1  0
 37 28  1  1
  4  5  1  0
 33 30  1  6
 30 38  1  0
 34 31  1  1
 31 39  1  0
 35 32  1  1
 32 40  1  0
 41 42  1  0
 41 43  1  0
 15 19  2  0
 16 22  2  0
 12 17  1  6
 17 19  1  0
 17 20  1  0
 18 19  1  0
 18 22  1  0
 18 23  1  0
  9 10  1  0
  9 11  1  0
 10 12  1  0
 11  5  1  6
 33 34  1  0
 33 35  1  0
 34 36  1  0
 35 37  1  0
 36 42  1  6
 20 21  2  0
 21 22  1  0
M  CHG  2   2  -1  26  -1
M  END
>  <COMPND>  (121) 
    8629 

>  <AUTHOR>  (121) 
    GENERATED BY OPEN BABEL 3.1.1

>  <MASTER>  (121) 
        0    0    0    0    0    0    0    0   58    0   58    0

>  <minimizedAffinity>  (121) 
-7.04493

>  <CNNscore>  (121) 
0.6291635036

>  <CNNaffinity>  (121) 
4.3453559875

>  <CNN_VS>  (121) 
2.7339394093

>  <CNNaffinity_variance>  (121) 
0.3185906410

$$$$
122
     RDKit          3D

 43 45  0  0  0  0  0  0  0  0999 V2000
   21.4174   71.4109   -2.4215 P   0  0  2  0  0  0  0  0  0  0  0  0
   22.7611   71.9997   -3.1036 O   0  0  0  0  0  0  0  0  0  0  0  0
   21.6223   70.1995   -1.5602 O   0  0  0  0  0  0  0  0  0  0  0  0
   20.4000   71.2243   -3.6657 O   0  0  0  0  0  0  0  0  0  0  0  0
   19.4424   70.1817   -3.6056 C   0  0  0  0  0  0  0  0  0  0  0  0
   17.6640   71.4430   -4.6156 O   0  0  0  0  0  0  0  0  0  0  0  0
   15.9219   70.3975   -2.4104 O   0  0  0  0  0  0  0  0  0  0  0  0
   15.2471   68.7953   -4.5114 O   0  0  0  0  0  0  0  0  0  0  0  0
   16.9859   69.7483   -3.1044 C   0  0  1  0  0  0  0  0  0  0  0  0
   16.5432   69.3581   -4.4992 C   0  0  2  0  0  0  0  0  0  0  0  0
   18.0622   70.7878   -3.3915 C   0  0  1  0  0  0  0  0  0  0  0  0
   16.6109   70.6860   -5.2342 C   0  0  2  0  0  0  0  0  0  0  0  0
   15.2225   69.7534   -2.2158 H   0  0  0  0  0  0  0  0  0  0  0  0
   15.2559   67.9524   -4.0316 H   0  0  0  0  0  0  0  0  0  0  0  0
   14.6732   70.2384   -7.2400 O   0  0  0  0  0  0  0  0  0  0  0  0
   17.8732   70.0823  -10.5532 O   0  0  0  0  0  0  0  0  0  0  0  0
   16.9097   70.5251   -6.6293 N   0  0  0  0  0  0  0  0  0  0  0  0
   16.2681   70.1612   -8.8881 N   0  0  0  0  0  0  0  0  0  0  0  0
   15.8633   70.3037   -7.5548 C   0  0  0  0  0  0  0  0  0  0  0  0
   18.2281   70.5878   -7.0673 C   0  0  0  0  0  0  0  0  0  0  0  0
   18.5976   70.4487   -8.3422 C   0  0  0  0  0  0  0  0  0  0  0  0
   17.5655   70.2144   -9.3727 C   0  0  0  0  0  0  0  0  0  0  0  0
   15.5563   70.0058   -9.5506 H   0  0  0  0  0  0  0  0  0  0  0  0
   20.8116   72.6932   -1.6459 O   0  0  0  0  0  0  0  0  0  0  0  0
   21.4907   73.7165   -0.5950 P   0  0  2  0  0  0  0  0  0  0  0  0
   22.2015   72.7325    0.4746 O   0  0  0  0  0  0  0  0  0  0  0  0
   20.5335   74.7017    0.0108 O   0  0  0  0  0  0  0  0  0  0  0  0
   22.7136   74.3857   -1.4085 O   0  0  0  0  0  0  0  0  0  0  0  0
   23.7032   76.5170   -1.7162 O   0  0  0  0  0  0  0  0  0  0  0  0
   23.1676   75.4610   -5.6721 O   0  0  0  0  0  0  0  0  0  0  0  0
   25.8122   75.4691   -4.5522 O   0  0  0  0  0  0  0  0  0  0  0  0
   21.1540   74.7744   -3.7089 O   0  0  0  0  0  0  0  0  0  0  0  0
   23.4469   75.2310   -4.2884 C   0  0  1  0  0  0  0  0  0  0  0  0
   24.6821   76.0488   -3.9062 C   0  0  1  0  0  0  0  0  0  0  0  0
   22.2394   75.6606   -3.4573 C   0  0  2  0  0  0  0  0  0  0  0  0
   24.8865   76.0656   -2.3853 C   0  0  1  0  0  0  0  0  0  0  0  0
   22.5641   75.6902   -1.9627 C   0  0  1  0  0  0  0  0  0  0  0  0
   23.9302   75.1898   -6.2054 H   0  0  0  0  0  0  0  0  0  0  0  0
   25.6701   75.4641   -5.5119 H   0  0  0  0  0  0  0  0  0  0  0  0
   20.9580   74.7648   -4.6583 H   0  0  0  0  0  0  0  0  0  0  0  0
   27.2511   76.3375   -2.1761 O   0  0  0  0  0  0  0  0  0  0  0  0
   26.0185   77.0030   -1.9707 C   0  0  0  0  0  0  0  0  0  0  0  0
   27.9808   76.9223   -1.9167 H   0  0  0  0  0  0  0  0  0  0  0  0
 25 28  1  0
 25 24  1  0
 25 26  1  1
 25 27  2  0
  1  4  1  0
  1 24  1  0
  1  2  1  6
  1  3  2  0
  6 11  1  0
  6 12  1  0
 29 36  1  0
 29 37  1  0
  9  7  1  1
  7 13  1  0
 10  8  1  1
  8 14  1  0
 37 28  1  6
  4  5  1  0
 33 30  1  6
 30 38  1  0
 34 31  1  6
 31 39  1  0
 35 32  1  1
 32 40  1  0
 41 42  1  0
 41 43  1  0
 15 19  2  0
 16 22  2  0
 12 17  1  6
 17 19  1  0
 17 20  1  0
 18 19  1  0
 18 22  1  0
 18 23  1  0
  9 10  1  0
  9 11  1  0
 10 12  1  0
 11  5  1  6
 33 34  1  0
 33 35  1  0
 34 36  1  0
 35 37  1  0
 36 42  1  6
 20 21  2  0
 21 22  1  0
M  CHG  2   2  -1  26  -1
M  END
>  <COMPND>  (122) 
    8629 

>  <AUTHOR>  (122) 
    GENERATED BY OPEN BABEL 3.1.1

>  <MASTER>  (122) 
        0    0    0    0    0    0    0    0   58    0   58    0

>  <minimizedAffinity>  (122) 
-7.35734

>  <CNNscore>  (122) 
0.6072682738

>  <CNNaffinity>  (122) 
4.5591797829

>  <CNN_VS>  (122) 
2.7686452866

>  <CNNaffinity_variance>  (122) 
0.2397824973

$$$$
123
     RDKit          3D

 43 45  0  0  0  0  0  0  0  0999 V2000
   21.4161   71.6219   -2.1333 P   0  0  2  0  0  0  0  0  0  0  0  0
   22.3486   71.1269   -3.3592 O   0  0  0  0  0  0  0  0  0  0  0  0
   21.9749   71.3590   -0.7658 O   0  0  0  0  0  0  0  0  0  0  0  0
   19.9768   70.9517   -2.4449 O   0  0  0  0  0  0  0  0  0  0  0  0
   19.3716   71.2034   -3.7012 C   0  0  0  0  0  0  0  0  0  0  0  0
   17.2884   71.7495   -4.7671 O   0  0  0  0  0  0  0  0  0  0  0  0
   15.9619   70.3466   -2.4730 O   0  0  0  0  0  0  0  0  0  0  0  0
   15.8599   68.4747   -4.4535 O   0  0  0  0  0  0  0  0  0  0  0  0
   17.1845   70.0320   -3.1375 C   0  0  1  0  0  0  0  0  0  0  0  0
   16.9033   69.4267   -4.4970 C   0  0  2  0  0  0  0  0  0  0  0  0
   17.8677   71.3425   -3.5081 C   0  0  1  0  0  0  0  0  0  0  0  0
   16.5427   70.6522   -5.3192 C   0  0  2  0  0  0  0  0  0  0  0  0
   15.5076   69.5252   -2.2262 H   0  0  0  0  0  0  0  0  0  0  0  0
   16.1378   67.7144   -3.9191 H   0  0  0  0  0  0  0  0  0  0  0  0
   14.6711   70.2627   -7.3985 O   0  0  0  0  0  0  0  0  0  0  0  0
   17.9849   70.0928  -10.5971 O   0  0  0  0  0  0  0  0  0  0  0  0
   16.8887   70.5035   -6.7047 N   0  0  0  0  0  0  0  0  0  0  0  0
   16.3226   70.1786   -8.9895 N   0  0  0  0  0  0  0  0  0  0  0  0
   15.8727   70.3115   -7.6697 C   0  0  0  0  0  0  0  0  0  0  0  0
   18.2228   70.5490   -7.0945 C   0  0  0  0  0  0  0  0  0  0  0  0
   18.6355   70.4193   -8.3571 C   0  0  0  0  0  0  0  0  0  0  0  0
   17.6373   70.2155   -9.4267 C   0  0  0  0  0  0  0  0  0  0  0  0
   15.6326   70.0435   -9.6789 H   0  0  0  0  0  0  0  0  0  0  0  0
   21.1705   73.1835   -2.4710 O   0  0  0  0  0  0  0  0  0  0  0  0
   20.5442   74.3768   -1.5784 P   0  0  2  0  0  0  0  0  0  0  0  0
   19.0745   73.8203   -1.1938 O   0  0  0  0  0  0  0  0  0  0  0  0
   20.5412   75.7161   -2.2567 O   0  0  0  0  0  0  0  0  0  0  0  0
   21.3730   74.3299   -0.1942 O   0  0  0  0  0  0  0  0  0  0  0  0
   21.2939   75.8644    1.6101 O   0  0  0  0  0  0  0  0  0  0  0  0
   25.2683   74.7697    1.8485 O   0  0  0  0  0  0  0  0  0  0  0  0
   23.4176   73.8317    3.8343 O   0  0  0  0  0  0  0  0  0  0  0  0
   24.0151   75.1026   -0.7395 O   0  0  0  0  0  0  0  0  0  0  0  0
   23.8736   74.5678    1.6047 C   0  0  1  0  0  0  0  0  0  0  0  0
   23.1129   74.8626    2.8990 C   0  0  1  0  0  0  0  0  0  0  0  0
   23.4208   75.5077    0.4889 C   0  0  2  0  0  0  0  0  0  0  0  0
   21.6000   74.9279    2.6498 C   0  0  1  0  0  0  0  0  0  0  0  0
   21.8970   75.5351    0.3572 C   0  0  1  0  0  0  0  0  0  0  0  0
   25.5623   74.1755    2.5556 H   0  0  0  0  0  0  0  0  0  0  0  0
   24.3759   73.8008    3.9824 H   0  0  0  0  0  0  0  0  0  0  0  0
   24.9796   75.0896   -0.6432 H   0  0  0  0  0  0  0  0  0  0  0  0
   19.8163   76.2748    3.4942 O   0  0  0  0  0  0  0  0  0  0  0  0
   20.8344   75.3755    3.8930 C   0  0  0  0  0  0  0  0  0  0  0  0
   19.3205   76.5679    4.2752 H   0  0  0  0  0  0  0  0  0  0  0  0
 25 28  1  0
 25 24  1  0
 25 26  1  1
 25 27  2  0
  1  4  1  0
  1 24  1  0
  1  2  1  6
  1  3  2  0
  6 11  1  0
  6 12  1  0
 29 36  1  0
 29 37  1  0
  9  7  1  6
  7 13  1  0
 10  8  1  1
  8 14  1  0
 37 28  1  1
  4  5  1  0
 33 30  1  1
 30 38  1  0
 34 31  1  1
 31 39  1  0
 35 32  1  6
 32 40  1  0
 41 42  1  0
 41 43  1  0
 15 19  2  0
 16 22  2  0
 12 17  1  6
 17 19  1  0
 17 20  1  0
 18 19  1  0
 18 22  1  0
 18 23  1  0
  9 10  1  0
  9 11  1  0
 10 12  1  0
 11  5  1  6
 33 34  1  0
 33 35  1  0
 34 36  1  0
 35 37  1  0
 36 42  1  1
 20 21  2  0
 21 22  1  0
M  CHG  2   2  -1  26  -1
M  END
>  <COMPND>  (123) 
    8629 

>  <AUTHOR>  (123) 
    GENERATED BY OPEN BABEL 3.1.1

>  <MASTER>  (123) 
        0    0    0    0    0    0    0    0   58    0   58    0

>  <minimizedAffinity>  (123) 
-7.00599

>  <CNNscore>  (123) 
0.6053090692

>  <CNNaffinity>  (123) 
4.4346222878

>  <CNN_VS>  (123) 
2.6843171120

>  <CNNaffinity_variance>  (123) 
0.0842860043

$$$$
124
     RDKit          3D

 43 45  0  0  0  0  0  0  0  0999 V2000
   16.9803   72.7415   -3.3137 P   0  0  2  0  0  0  0  0  0  0  0  0
   15.3663   72.8074   -3.4027 O   0  0  0  0  0  0  0  0  0  0  0  0
   17.5692   73.3057   -2.0542 O   0  0  0  0  0  0  0  0  0  0  0  0
   17.4738   73.4325   -4.6910 O   0  0  0  0  0  0  0  0  0  0  0  0
   16.6239   74.3795   -5.3146 C   0  0  0  0  0  0  0  0  0  0  0  0
   17.2298   72.8914   -7.1014 O   0  0  0  0  0  0  0  0  0  0  0  0
   15.6116   74.6766   -8.8861 O   0  0  0  0  0  0  0  0  0  0  0  0
   13.9190   72.5843   -8.4457 O   0  0  0  0  0  0  0  0  0  0  0  0
   15.3749   74.3027   -7.5298 C   0  0  1  0  0  0  0  0  0  0  0  0
   14.8867   72.8709   -7.4567 C   0  0  2  0  0  0  0  0  0  0  0  0
   16.7229   74.2155   -6.8251 C   0  0  1  0  0  0  0  0  0  0  0  0
   16.1740   72.0886   -7.6542 C   0  0  2  0  0  0  0  0  0  0  0  0
   14.7650   74.7391   -9.3565 H   0  0  0  0  0  0  0  0  0  0  0  0
   13.1191   73.1061   -8.2765 H   0  0  0  0  0  0  0  0  0  0  0  0
   18.0977   70.0539   -8.0248 O   0  0  0  0  0  0  0  0  0  0  0  0
   15.9895   67.2614   -5.0250 O   0  0  0  0  0  0  0  0  0  0  0  0
   16.1524   70.8199   -6.9825 N   0  0  0  0  0  0  0  0  0  0  0  0
   17.0465   68.6652   -6.5307 N   0  0  0  0  0  0  0  0  0  0  0  0
   17.1653   69.8670   -7.2402 C   0  0  0  0  0  0  0  0  0  0  0  0
   15.1351   70.5311   -6.0794 C   0  0  0  0  0  0  0  0  0  0  0  0
   15.0354   69.3797   -5.4118 C   0  0  0  0  0  0  0  0  0  0  0  0
   16.0535   68.3306   -5.6236 C   0  0  0  0  0  0  0  0  0  0  0  0
   17.7407   67.9862   -6.6944 H   0  0  0  0  0  0  0  0  0  0  0  0
   17.2943   71.1751   -3.5603 O   0  0  0  0  0  0  0  0  0  0  0  0
   18.6352   70.3086   -3.3071 P   0  0  2  0  0  0  0  0  0  0  0  0
   19.2490   70.1319   -4.7936 O   0  0  0  0  0  0  0  0  0  0  0  0
   18.4050   69.0184   -2.5748 O   0  0  0  0  0  0  0  0  0  0  0  0
   19.6458   71.3265   -2.5672 O   0  0  0  0  0  0  0  0  0  0  0  0
   21.0704   72.7553   -3.8106 O   0  0  0  0  0  0  0  0  0  0  0  0
   23.1857   72.6361   -0.2663 O   0  0  0  0  0  0  0  0  0  0  0  0
   21.7654   75.0249   -0.9902 O   0  0  0  0  0  0  0  0  0  0  0  0
   21.8749   70.2485   -1.2465 O   0  0  0  0  0  0  0  0  0  0  0  0
   22.0120   72.6477   -1.0834 C   0  0  1  0  0  0  0  0  0  0  0  0
   22.0029   73.9470   -1.8912 C   0  0  1  0  0  0  0  0  0  0  0  0
   22.0394   71.4364   -2.0137 C   0  0  2  0  0  0  0  0  0  0  0  0
   20.9232   73.9139   -2.9813 C   0  0  1  0  0  0  0  0  0  0  0  0
   20.9564   71.5265   -3.0903 C   0  0  1  0  0  0  0  0  0  0  0  0
   23.1743   73.4024    0.3270 H   0  0  0  0  0  0  0  0  0  0  0  0
   22.4538   75.0343   -0.3067 H   0  0  0  0  0  0  0  0  0  0  0  0
   22.5666   70.2031   -0.5688 H   0  0  0  0  0  0  0  0  0  0  0  0
   22.3193   75.6431   -3.8586 O   0  0  0  0  0  0  0  0  0  0  0  0
   20.9997   75.1320   -3.8992 C   0  0  0  0  0  0  0  0  0  0  0  0
   22.3830   76.4186   -4.4384 H   0  0  0  0  0  0  0  0  0  0  0  0
 25 28  1  0
 25 24  1  0
 25 26  1  6
 25 27  2  0
  1  4  1  0
  1 24  1  0
  1  2  1  1
  1  3  2  0
  6 11  1  0
  6 12  1  0
 29 36  1  0
 29 37  1  0
  9  7  1  6
  7 13  1  0
 10  8  1  6
  8 14  1  0
 37 28  1  1
  4  5  1  0
 33 30  1  1
 30 38  1  0
 34 31  1  1
 31 39  1  0
 35 32  1  1
 32 40  1  0
 41 42  1  0
 41 43  1  0
 15 19  2  0
 16 22  2  0
 12 17  1  1
 17 19  1  0
 17 20  1  0
 18 19  1  0
 18 22  1  0
 18 23  1  0
  9 10  1  0
  9 11  1  0
 10 12  1  0
 11  5  1  1
 33 34  1  0
 33 35  1  0
 34 36  1  0
 35 37  1  0
 36 42  1  6
 20 21  2  0
 21 22  1  0
M  CHG  2   2  -1  26  -1
M  END
>  <COMPND>  (124) 
    8629 

>  <AUTHOR>  (124) 
    GENERATED BY OPEN BABEL 3.1.1

>  <MASTER>  (124) 
        0    0    0    0    0    0    0    0   58    0   58    0

>  <minimizedAffinity>  (124) 
-6.46913

>  <CNNscore>  (124) 
0.5611764193

>  <CNNaffinity>  (124) 
4.2059607506

>  <CNN_VS>  (124) 
2.3602859974

>  <CNNaffinity_variance>  (124) 
0.3546748459

$$$$
125
     RDKit          3D

 43 45  0  0  0  0  0  0  0  0999 V2000
   21.4785   71.5691   -2.1808 P   0  0  2  0  0  0  0  0  0  0  0  0
   22.8122   72.2001   -2.8446 O   0  0  0  0  0  0  0  0  0  0  0  0
   21.6598   70.2162   -1.5577 O   0  0  0  0  0  0  0  0  0  0  0  0
   20.3776   71.6562   -3.3634 O   0  0  0  0  0  0  0  0  0  0  0  0
   19.5125   70.5522   -3.5643 C   0  0  0  0  0  0  0  0  0  0  0  0
   17.6061   71.5966   -4.5885 O   0  0  0  0  0  0  0  0  0  0  0  0
   15.9895   70.3947   -2.3675 O   0  0  0  0  0  0  0  0  0  0  0  0
   15.4955   68.7004   -4.4465 O   0  0  0  0  0  0  0  0  0  0  0  0
   17.1186   69.8575   -3.0543 C   0  0  1  0  0  0  0  0  0  0  0  0
   16.7217   69.4026   -4.4433 C   0  0  2  0  0  0  0  0  0  0  0  0
   18.0739   71.0054   -3.3564 C   0  0  1  0  0  0  0  0  0  0  0  0
   16.6429   70.7201   -5.1958 C   0  0  2  0  0  0  0  0  0  0  0  0
   15.3652   69.6800   -2.1636 H   0  0  0  0  0  0  0  0  0  0  0  0
   15.5971   67.8700   -3.9557 H   0  0  0  0  0  0  0  0  0  0  0  0
   14.7498   70.1270   -7.2063 O   0  0  0  0  0  0  0  0  0  0  0  0
   17.9656   70.1845  -10.5073 O   0  0  0  0  0  0  0  0  0  0  0  0
   16.9578   70.5748   -6.5890 N   0  0  0  0  0  0  0  0  0  0  0  0
   16.3525   70.1563   -8.8484 N   0  0  0  0  0  0  0  0  0  0  0  0
   15.9334   70.2754   -7.5171 C   0  0  0  0  0  0  0  0  0  0  0  0
   18.2701   70.7292   -7.0226 C   0  0  0  0  0  0  0  0  0  0  0  0
   18.6535   70.6112   -8.2955 C   0  0  0  0  0  0  0  0  0  0  0  0
   17.6447   70.2995   -9.3285 C   0  0  0  0  0  0  0  0  0  0  0  0
   15.6561   69.9477   -9.5127 H   0  0  0  0  0  0  0  0  0  0  0  0
   21.0019   72.7239   -1.1550 O   0  0  0  0  0  0  0  0  0  0  0  0
   21.8051   73.5080    0.0082 P   0  0  2  0  0  0  0  0  0  0  0  0
   23.2400   72.7612    0.0364 O   0  0  0  0  0  0  0  0  0  0  0  0
   21.0969   73.5387    1.3316 O   0  0  0  0  0  0  0  0  0  0  0  0
   22.1148   74.9627   -0.6186 O   0  0  0  0  0  0  0  0  0  0  0  0
   24.1979   75.3104   -1.6939 O   0  0  0  0  0  0  0  0  0  0  0  0
   23.1631   79.2424   -0.9729 O   0  0  0  0  0  0  0  0  0  0  0  0
   23.0506   78.2150   -3.6525 O   0  0  0  0  0  0  0  0  0  0  0  0
   22.5724   77.2086    1.0005 O   0  0  0  0  0  0  0  0  0  0  0  0
   22.9221   77.8686   -1.2893 C   0  0  1  0  0  0  0  0  0  0  0  0
   23.6825   77.5317   -2.5735 C   0  0  1  0  0  0  0  0  0  0  0  0
   23.4078   76.9973   -0.1325 C   0  0  2  0  0  0  0  0  0  0  0  0
   23.6916   76.0189   -2.8312 C   0  0  1  0  0  0  0  0  0  0  0  0
   23.4242   75.5150   -0.5101 C   0  0  1  0  0  0  0  0  0  0  0  0
   22.8565   79.8011   -1.7032 H   0  0  0  0  0  0  0  0  0  0  0  0
   23.0511   79.1692   -3.4771 H   0  0  0  0  0  0  0  0  0  0  0  0
   22.5707   78.1506    1.2297 H   0  0  0  0  0  0  0  0  0  0  0  0
   25.9204   75.9452   -3.6893 O   0  0  0  0  0  0  0  0  0  0  0  0
   24.5763   75.6464   -4.0189 C   0  0  0  0  0  0  0  0  0  0  0  0
   26.4951   75.7130   -4.4360 H   0  0  0  0  0  0  0  0  0  0  0  0
 25 28  1  0
 25 24  1  0
 25 26  1  1
 25 27  2  0
  1  4  1  0
  1 24  1  0
  1  2  1  6
  1  3  2  0
  6 11  1  0
  6 12  1  0
 29 36  1  0
 29 37  1  0
  9  7  1  1
  7 13  1  0
 10  8  1  1
  8 14  1  0
 37 28  1  6
  4  5  1  0
 33 30  1  1
 30 38  1  0
 34 31  1  6
 31 39  1  0
 35 32  1  1
 32 40  1  0
 41 42  1  0
 41 43  1  0
 15 19  2  0
 16 22  2  0
 12 17  1  6
 17 19  1  0
 17 20  1  0
 18 19  1  0
 18 22  1  0
 18 23  1  0
  9 10  1  0
  9 11  1  0
 10 12  1  0
 11  5  1  6
 33 34  1  0
 33 35  1  0
 34 36  1  0
 35 37  1  0
 36 42  1  6
 20 21  2  0
 21 22  1  0
M  CHG  2   2  -1  26  -1
M  END
>  <COMPND>  (125) 
    8629 

>  <AUTHOR>  (125) 
    GENERATED BY OPEN BABEL 3.1.1

>  <MASTER>  (125) 
        0    0    0    0    0    0    0    0   58    0   58    0

>  <minimizedAffinity>  (125) 
-6.88794

>  <CNNscore>  (125) 
0.5499069691

>  <CNNaffinity>  (125) 
4.3996939659

>  <CNN_VS>  (125) 
2.4194223881

>  <CNNaffinity_variance>  (125) 
0.2160749137

$$$$
126
     RDKit          3D

 43 45  0  0  0  0  0  0  0  0999 V2000
   20.8235   73.6272   -7.1851 P   0  0  2  0  0  0  0  0  0  0  0  0
   20.2485   74.9814   -7.8581 O   0  0  0  0  0  0  0  0  0  0  0  0
   22.3169   73.5707   -7.0513 O   0  0  0  0  0  0  0  0  0  0  0  0
   20.1510   72.4432   -8.0590 O   0  0  0  0  0  0  0  0  0  0  0  0
   18.7384   72.3960   -8.1597 C   0  0  0  0  0  0  0  0  0  0  0  0
   18.1882   70.1570   -7.4828 O   0  0  0  0  0  0  0  0  0  0  0  0
   16.9147   69.8544  -10.1804 O   0  0  0  0  0  0  0  0  0  0  0  0
   14.7686   70.2918   -8.5557 O   0  0  0  0  0  0  0  0  0  0  0  0
   16.9630   70.9979   -9.3287 C   0  0  1  0  0  0  0  0  0  0  0  0
   16.0167   70.8229   -8.1593 C   0  0  2  0  0  0  0  0  0  0  0  0
   18.3215   71.0123   -8.6391 C   0  0  1  0  0  0  0  0  0  0  0  0
   16.7963   69.8767   -7.2620 C   0  0  2  0  0  0  0  0  0  0  0  0
   16.0562   69.8240  -10.6321 H   0  0  0  0  0  0  0  0  0  0  0  0
   14.3113   70.9305   -9.1246 H   0  0  0  0  0  0  0  0  0  0  0  0
   14.6884   68.5907   -5.8905 O   0  0  0  0  0  0  0  0  0  0  0  0
   15.7399   70.6939   -1.9267 O   0  0  0  0  0  0  0  0  0  0  0  0
   16.4967   70.0695   -5.8711 N   0  0  0  0  0  0  0  0  0  0  0  0
   15.2138   69.6388   -3.9179 N   0  0  0  0  0  0  0  0  0  0  0  0
   15.4154   69.3762   -5.2789 C   0  0  0  0  0  0  0  0  0  0  0  0
   17.2711   70.9377   -5.1093 C   0  0  0  0  0  0  0  0  0  0  0  0
   17.0649   71.1781   -3.8128 C   0  0  0  0  0  0  0  0  0  0  0  0
   15.9553   70.4939   -3.1181 C   0  0  0  0  0  0  0  0  0  0  0  0
   14.4659   69.1673   -3.4841 H   0  0  0  0  0  0  0  0  0  0  0  0
   20.0192   73.5472   -5.7852 O   0  0  0  0  0  0  0  0  0  0  0  0
   19.7391   74.6697   -4.6562 P   0  0  2  0  0  0  0  0  0  0  0  0
   18.1635   74.4890   -4.3363 O   0  0  0  0  0  0  0  0  0  0  0  0
   20.1334   76.0608   -5.0604 O   0  0  0  0  0  0  0  0  0  0  0  0
   20.4887   74.1186   -3.3374 O   0  0  0  0  0  0  0  0  0  0  0  0
   22.7830   74.2521   -2.7586 O   0  0  0  0  0  0  0  0  0  0  0  0
   21.9028   70.5654   -1.1202 O   0  0  0  0  0  0  0  0  0  0  0  0
   22.3338   72.8186    0.6077 O   0  0  0  0  0  0  0  0  0  0  0  0
   20.7261   71.3398   -3.6491 O   0  0  0  0  0  0  0  0  0  0  0  0
   21.6404   71.9197   -1.4976 C   0  0  1  0  0  0  0  0  0  0  0  0
   22.6487   72.8209   -0.7820 C   0  0  1  0  0  0  0  0  0  0  0  0
   21.7817   72.0520   -3.0128 C   0  0  2  0  0  0  0  0  0  0  0  0
   22.6053   74.2509   -1.3373 C   0  0  1  0  0  0  0  0  0  0  0  0
   21.7751   73.5165   -3.4550 C   0  0  1  0  0  0  0  0  0  0  0  0
   21.8143   70.4745   -0.1593 H   0  0  0  0  0  0  0  0  0  0  0  0
   22.3643   71.9098    0.9458 H   0  0  0  0  0  0  0  0  0  0  0  0
   20.7412   70.4142   -3.3612 H   0  0  0  0  0  0  0  0  0  0  0  0
   23.2403   75.6871    0.4635 O   0  0  0  0  0  0  0  0  0  0  0  0
   23.7093   75.1267   -0.7490 C   0  0  0  0  0  0  0  0  0  0  0  0
   23.9327   76.2468    0.8495 H   0  0  0  0  0  0  0  0  0  0  0  0
 25 28  1  0
 25 24  1  0
 25 26  1  1
 25 27  2  0
  1  4  1  0
  1 24  1  0
  1  2  1  6
  1  3  2  0
  6 11  1  0
  6 12  1  0
 29 36  1  0
 29 37  1  0
  9  7  1  6
  7 13  1  0
 10  8  1  6
  8 14  1  0
 37 28  1  1
  4  5  1  0
 33 30  1  6
 30 38  1  0
 34 31  1  1
 31 39  1  0
 35 32  1  6
 32 40  1  0
 41 42  1  0
 41 43  1  0
 15 19  2  0
 16 22  2  0
 12 17  1  1
 17 19  1  0
 17 20  1  0
 18 19  1  0
 18 22  1  0
 18 23  1  0
  9 10  1  0
  9 11  1  0
 10 12  1  0
 11  5  1  1
 33 34  1  0
 33 35  1  0
 34 36  1  0
 35 37  1  0
 36 42  1  1
 20 21  2  0
 21 22  1  0
M  CHG  2   2  -1  26  -1
M  END
>  <COMPND>  (126) 
    8629 

>  <AUTHOR>  (126) 
    GENERATED BY OPEN BABEL 3.1.1

>  <MASTER>  (126) 
        0    0    0    0    0    0    0    0   58    0   58    0

>  <minimizedAffinity>  (126) 
-7.37625

>  <CNNscore>  (126) 
0.5237439275

>  <CNNaffinity>  (126) 
4.3946633339

>  <CNN_VS>  (126) 
2.3016781807

>  <CNNaffinity_variance>  (126) 
0.2515352964

$$$$
127
     RDKit          3D

 43 45  0  0  0  0  0  0  0  0999 V2000
   20.9656   71.7805   -2.0964 P   0  0  2  0  0  0  0  0  0  0  0  0
   21.7257   70.7266   -1.1325 O   0  0  0  0  0  0  0  0  0  0  0  0
   20.0218   72.7132   -1.3961 O   0  0  0  0  0  0  0  0  0  0  0  0
   20.3102   70.8513   -3.2475 O   0  0  0  0  0  0  0  0  0  0  0  0
   19.5425   71.4735   -4.2630 C   0  0  0  0  0  0  0  0  0  0  0  0
   17.2968   71.5821   -5.1109 O   0  0  0  0  0  0  0  0  0  0  0  0
   16.4876   70.1086   -2.6279 O   0  0  0  0  0  0  0  0  0  0  0  0
   16.5221   68.1327   -4.5071 O   0  0  0  0  0  0  0  0  0  0  0  0
   17.6721   69.9736   -3.4116 C   0  0  1  0  0  0  0  0  0  0  0  0
   17.3667   69.2481   -4.7054 C   0  0  2  0  0  0  0  0  0  0  0  0
   18.0661   71.3587   -3.9089 C   0  0  1  0  0  0  0  0  0  0  0  0
   16.7085   70.3403   -5.5313 C   0  0  2  0  0  0  0  0  0  0  0  0
   16.2166   69.2367   -2.2989 H   0  0  0  0  0  0  0  0  0  0  0  0
   16.9858   67.4661   -3.9767 H   0  0  0  0  0  0  0  0  0  0  0  0
   14.8023   70.9291   -7.5307 O   0  0  0  0  0  0  0  0  0  0  0  0
   17.6741   69.6532  -10.9020 O   0  0  0  0  0  0  0  0  0  0  0  0
   16.9316   70.1718   -6.9395 N   0  0  0  0  0  0  0  0  0  0  0  0
   16.2338   70.2935   -9.2077 N   0  0  0  0  0  0  0  0  0  0  0  0
   15.9083   70.4960   -7.8605 C   0  0  0  0  0  0  0  0  0  0  0  0
   18.1542   69.6902   -7.3947 C   0  0  0  0  0  0  0  0  0  0  0  0
   18.4484   69.5015   -8.6828 C   0  0  0  0  0  0  0  0  0  0  0  0
   17.4341   69.8159   -9.7096 C   0  0  0  0  0  0  0  0  0  0  0  0
   15.5361   70.5122   -9.8674 H   0  0  0  0  0  0  0  0  0  0  0  0
   22.1837   72.5106   -2.8686 O   0  0  0  0  0  0  0  0  0  0  0  0
   22.5014   74.0773   -3.1083 P   0  0  2  0  0  0  0  0  0  0  0  0
   21.1904   74.6055   -3.8956 O   0  0  0  0  0  0  0  0  0  0  0  0
   23.7979   74.3407   -3.8180 O   0  0  0  0  0  0  0  0  0  0  0  0
   22.3933   74.7449   -1.6429 O   0  0  0  0  0  0  0  0  0  0  0  0
   24.3607   75.6514   -0.6815 O   0  0  0  0  0  0  0  0  0  0  0  0
   22.0767   75.2591    2.7361 O   0  0  0  0  0  0  0  0  0  0  0  0
   22.5670   77.8724    1.6505 O   0  0  0  0  0  0  0  0  0  0  0  0
   21.9551   73.2280    0.6771 O   0  0  0  0  0  0  0  0  0  0  0  0
   22.3125   75.5133    1.3486 C   0  0  1  0  0  0  0  0  0  0  0  0
   23.2674   76.7033    1.2346 C   0  0  1  0  0  0  0  0  0  0  0  0
   22.9260   74.2686    0.7102 C   0  0  2  0  0  0  0  0  0  0  0  0
   23.7769   76.8689   -0.2034 C   0  0  1  0  0  0  0  0  0  0  0  0
   23.4451   74.5545   -0.7001 C   0  0  1  0  0  0  0  0  0  0  0  0
   21.6867   76.0454    3.1473 H   0  0  0  0  0  0  0  0  0  0  0  0
   22.2501   77.7546    2.5599 H   0  0  0  0  0  0  0  0  0  0  0  0
   21.6346   73.0563    1.5758 H   0  0  0  0  0  0  0  0  0  0  0  0
   24.2123   79.2118   -0.3767 O   0  0  0  0  0  0  0  0  0  0  0  0
   24.8504   77.9499   -0.3089 C   0  0  0  0  0  0  0  0  0  0  0  0
   24.8834   79.9096   -0.4438 H   0  0  0  0  0  0  0  0  0  0  0  0
 25 28  1  0
 25 24  1  0
 25 26  1  6
 25 27  2  0
  1  4  1  0
  1 24  1  0
  1  2  1  1
  1  3  2  0
  6 11  1  0
  6 12  1  0
 29 36  1  0
 29 37  1  0
  9  7  1  1
  7 13  1  0
 10  8  1  1
  8 14  1  0
 37 28  1  6
  4  5  1  0
 33 30  1  1
 30 38  1  0
 34 31  1  6
 31 39  1  0
 35 32  1  6
 32 40  1  0
 41 42  1  0
 41 43  1  0
 15 19  2  0
 16 22  2  0
 12 17  1  6
 17 19  1  0
 17 20  1  0
 18 19  1  0
 18 22  1  0
 18 23  1  0
  9 10  1  0
  9 11  1  0
 10 12  1  0
 11  5  1  6
 33 34  1  0
 33 35  1  0
 34 36  1  0
 35 37  1  0
 36 42  1  1
 20 21  2  0
 21 22  1  0
M  CHG  2   2  -1  26  -1
M  END
>  <COMPND>  (127) 
    8629 

>  <AUTHOR>  (127) 
    GENERATED BY OPEN BABEL 3.1.1

>  <MASTER>  (127) 
        0    0    0    0    0    0    0    0   58    0   58    0

>  <minimizedAffinity>  (127) 
-6.83504

>  <CNNscore>  (127) 
0.5039716363

>  <CNNaffinity>  (127) 
4.3709421158

>  <CNN_VS>  (127) 
2.2028307915

>  <CNNaffinity_variance>  (127) 
0.0808707923

$$$$
128
     RDKit          3D

 43 45  0  0  0  0  0  0  0  0999 V2000
   22.0294   73.3808   -3.9947 P   0  0  2  0  0  0  0  0  0  0  0  0
   21.4327   74.7893   -3.4681 O   0  0  0  0  0  0  0  0  0  0  0  0
   23.0794   73.4962   -5.0604 O   0  0  0  0  0  0  0  0  0  0  0  0
   20.7144   72.5267   -4.3935 O   0  0  0  0  0  0  0  0  0  0  0  0
   19.6566   73.1882   -5.0653 C   0  0  0  0  0  0  0  0  0  0  0  0
   17.3782   72.5395   -5.4676 O   0  0  0  0  0  0  0  0  0  0  0  0
   17.3659   71.5237   -2.6465 O   0  0  0  0  0  0  0  0  0  0  0  0
   17.7013   69.2402   -4.0990 O   0  0  0  0  0  0  0  0  0  0  0  0
   18.4216   71.5094   -3.6059 C   0  0  1  0  0  0  0  0  0  0  0  0
   18.1604   70.4534   -4.6595 C   0  0  2  0  0  0  0  0  0  0  0  0
   18.3358   72.7962   -4.4172 C   0  0  1  0  0  0  0  0  0  0  0  0
   17.1137   71.1285   -5.5295 C   0  0  2  0  0  0  0  0  0  0  0  0
   17.4003   70.7117   -2.1160 H   0  0  0  0  0  0  0  0  0  0  0  0
   18.4026   68.8496   -3.5546 H   0  0  0  0  0  0  0  0  0  0  0  0
   14.8976   71.0173   -7.2773 O   0  0  0  0  0  0  0  0  0  0  0  0
   17.4898   69.4713  -10.7604 O   0  0  0  0  0  0  0  0  0  0  0  0
   17.1810   70.7011   -6.8985 N   0  0  0  0  0  0  0  0  0  0  0  0
   16.1902   70.2478   -9.0102 N   0  0  0  0  0  0  0  0  0  0  0  0
   16.0093   70.6812   -7.6906 C   0  0  0  0  0  0  0  0  0  0  0  0
   18.3988   70.3078   -7.4427 C   0  0  0  0  0  0  0  0  0  0  0  0
   18.5542   69.8958   -8.7026 C   0  0  0  0  0  0  0  0  0  0  0  0
   17.3796   69.8456   -9.5969 C   0  0  0  0  0  0  0  0  0  0  0  0
   15.3877   70.2253   -9.5806 H   0  0  0  0  0  0  0  0  0  0  0  0
   22.5281   72.6657   -2.6335 O   0  0  0  0  0  0  0  0  0  0  0  0
   21.7858   72.4510   -1.2137 P   0  0  2  0  0  0  0  0  0  0  0  0
   21.9997   70.8749   -0.9178 O   0  0  0  0  0  0  0  0  0  0  0  0
   20.3519   72.8954   -1.1956 O   0  0  0  0  0  0  0  0  0  0  0  0
   22.7315   73.1992   -0.1410 O   0  0  0  0  0  0  0  0  0  0  0  0
   22.1939   74.7167    1.5982 O   0  0  0  0  0  0  0  0  0  0  0  0
   25.7624   76.3790    0.3518 O   0  0  0  0  0  0  0  0  0  0  0  0
   25.6491   74.9777    2.8561 O   0  0  0  0  0  0  0  0  0  0  0  0
   23.9219   75.2832   -1.5953 O   0  0  0  0  0  0  0  0  0  0  0  0
   24.8465   75.3160    0.6285 C   0  0  1  0  0  0  0  0  0  0  0  0
   24.4935   75.3622    2.1164 C   0  0  1  0  0  0  0  0  0  0  0  0
   23.5945   75.5004   -0.2271 C   0  0  2  0  0  0  0  0  0  0  0  0
   23.3189   74.4279    2.4364 C   0  0  1  0  0  0  0  0  0  0  0  0
   22.4708   74.5569    0.2055 C   0  0  1  0  0  0  0  0  0  0  0  0
   26.5598   76.2676    0.8915 H   0  0  0  0  0  0  0  0  0  0  0  0
   26.3835   75.5753    2.6446 H   0  0  0  0  0  0  0  0  0  0  0  0
   24.6341   75.8867   -1.8570 H   0  0  0  0  0  0  0  0  0  0  0  0
   23.7633   73.8992    4.7238 O   0  0  0  0  0  0  0  0  0  0  0  0
   22.8480   74.5754    3.8816 C   0  0  0  0  0  0  0  0  0  0  0  0
   23.4764   73.9849    5.6468 H   0  0  0  0  0  0  0  0  0  0  0  0
 25 28  1  0
 25 24  1  0
 25 26  1  1
 25 27  2  0
  1  4  1  0
  1 24  1  0
  1  2  1  1
  1  3  2  0
  6 11  1  0
  6 12  1  0
 29 36  1  0
 29 37  1  0
  9  7  1  1
  7 13  1  0
 10  8  1  1
  8 14  1  0
 37 28  1  1
  4  5  1  0
 33 30  1  1
 30 38  1  0
 34 31  1  1
 31 39  1  0
 35 32  1  6
 32 40  1  0
 41 42  1  0
 41 43  1  0
 15 19  2  0
 16 22  2  0
 12 17  1  6
 17 19  1  0
 17 20  1  0
 18 19  1  0
 18 22  1  0
 18 23  1  0
  9 10  1  0
  9 11  1  0
 10 12  1  0
 11  5  1  6
 33 34  1  0
 33 35  1  0
 34 36  1  0
 35 37  1  0
 36 42  1  1
 20 21  2  0
 21 22  1  0
M  CHG  2   2  -1  26  -1
M  END
>  <COMPND>  (128) 
    8629 

>  <AUTHOR>  (128) 
    GENERATED BY OPEN BABEL 3.1.1

>  <MASTER>  (128) 
        0    0    0    0    0    0    0    0   58    0   58    0

>  <minimizedAffinity>  (128) 
-7.48796

>  <CNNscore>  (128) 
0.4669004381

>  <CNNaffinity>  (128) 
4.2690763474

>  <CNN_VS>  (128) 
1.9932335615

>  <CNNaffinity_variance>  (128) 
0.1087354422

$$$$
129
     RDKit          3D

 43 45  0  0  0  0  0  0  0  0999 V2000
   19.7275   73.4725   -7.7491 P   0  0  2  0  0  0  0  0  0  0  0  0
   18.9959   74.8163   -8.2747 O   0  0  0  0  0  0  0  0  0  0  0  0
   21.0013   73.1243   -8.4616 O   0  0  0  0  0  0  0  0  0  0  0  0
   18.5633   72.3502   -7.8025 O   0  0  0  0  0  0  0  0  0  0  0  0
   17.3361   72.6784   -8.4302 C   0  0  0  0  0  0  0  0  0  0  0  0
   17.1558   70.3488   -7.8695 O   0  0  0  0  0  0  0  0  0  0  0  0
   14.2977   70.5495   -8.7537 O   0  0  0  0  0  0  0  0  0  0  0  0
   14.0886   70.6610   -6.0370 O   0  0  0  0  0  0  0  0  0  0  0  0
   15.1022   71.5132   -8.0760 C   0  0  1  0  0  0  0  0  0  0  0  0
   15.2895   71.1161   -6.6266 C   0  0  2  0  0  0  0  0  0  0  0  0
   16.5210   71.4065   -8.6209 C   0  0  1  0  0  0  0  0  0  0  0  0
   16.3396   70.0234   -6.7324 C   0  0  2  0  0  0  0  0  0  0  0  0
   13.3866   70.5989   -8.4227 H   0  0  0  0  0  0  0  0  0  0  0  0
   13.4529   71.3922   -5.9920 H   0  0  0  0  0  0  0  0  0  0  0  0
   15.5697   68.8242   -4.2938 O   0  0  0  0  0  0  0  0  0  0  0  0
   19.6196   69.8018   -2.3231 O   0  0  0  0  0  0  0  0  0  0  0  0
   17.1733   69.9501   -5.5658 N   0  0  0  0  0  0  0  0  0  0  0  0
   17.5869   69.3118   -3.3146 N   0  0  0  0  0  0  0  0  0  0  0  0
   16.6909   69.3272   -4.3911 C   0  0  0  0  0  0  0  0  0  0  0  0
   18.4537   70.4918   -5.5939 C   0  0  0  0  0  0  0  0  0  0  0  0
   19.2953   70.4700   -4.5583 C   0  0  0  0  0  0  0  0  0  0  0  0
   18.8689   69.8378   -3.2932 C   0  0  0  0  0  0  0  0  0  0  0  0
   17.2724   68.8834   -2.4855 H   0  0  0  0  0  0  0  0  0  0  0  0
   19.8960   73.7462   -6.1649 O   0  0  0  0  0  0  0  0  0  0  0  0
   21.1592   74.2780   -5.3080 P   0  0  2  0  0  0  0  0  0  0  0  0
   21.5348   75.6765   -6.0296 O   0  0  0  0  0  0  0  0  0  0  0  0
   22.2967   73.3023   -5.2186 O   0  0  0  0  0  0  0  0  0  0  0  0
   20.5343   74.7092   -3.8837 O   0  0  0  0  0  0  0  0  0  0  0  0
   20.7583   72.8764   -2.3980 O   0  0  0  0  0  0  0  0  0  0  0  0
   18.6378   75.4471    0.0404 O   0  0  0  0  0  0  0  0  0  0  0  0
   21.4195   74.9645    0.5670 O   0  0  0  0  0  0  0  0  0  0  0  0
   18.0205   75.2974   -2.7838 O   0  0  0  0  0  0  0  0  0  0  0  0
   19.5895   75.0953   -0.9675 C   0  0  1  0  0  0  0  0  0  0  0  0
   20.6421   74.1825   -0.3355 C   0  0  1  0  0  0  0  0  0  0  0  0
   18.8681   74.3762   -2.1059 C   0  0  2  0  0  0  0  0  0  0  0  0
   21.5417   73.5501   -1.4059 C   0  0  1  0  0  0  0  0  0  0  0  0
   19.8544   73.7417   -3.0881 C   0  0  1  0  0  0  0  0  0  0  0  0
   19.0893   75.9045    0.7659 H   0  0  0  0  0  0  0  0  0  0  0  0
   20.8395   75.3586    1.2375 H   0  0  0  0  0  0  0  0  0  0  0  0
   17.4006   75.6919   -2.1514 H   0  0  0  0  0  0  0  0  0  0  0  0
   21.9127   71.2334   -0.9541 O   0  0  0  0  0  0  0  0  0  0  0  0
   22.4958   72.5157   -0.8129 C   0  0  0  0  0  0  0  0  0  0  0  0
   22.5091   70.5648   -0.5812 H   0  0  0  0  0  0  0  0  0  0  0  0
 25 28  1  0
 25 24  1  0
 25 26  1  6
 25 27  2  0
  1  4  1  0
  1 24  1  0
  1  2  1  6
  1  3  2  0
  6 11  1  0
  6 12  1  0
 29 36  1  0
 29 37  1  0
  9  7  1  6
  7 13  1  0
 10  8  1  6
  8 14  1  0
 37 28  1  1
  4  5  1  0
 33 30  1  1
 30 38  1  0
 34 31  1  1
 31 39  1  0
 35 32  1  6
 32 40  1  0
 41 42  1  0
 41 43  1  0
 15 19  2  0
 16 22  2  0
 12 17  1  1
 17 19  1  0
 17 20  1  0
 18 19  1  0
 18 22  1  0
 18 23  1  0
  9 10  1  0
  9 11  1  0
 10 12  1  0
 11  5  1  1
 33 34  1  0
 33 35  1  0
 34 36  1  0
 35 37  1  0
 36 42  1  1
 20 21  2  0
 21 22  1  0
M  CHG  2   2  -1  26  -1
M  END
>  <COMPND>  (129) 
    8629 

>  <AUTHOR>  (129) 
    GENERATED BY OPEN BABEL 3.1.1

>  <MASTER>  (129) 
        0    0    0    0    0    0    0    0   58    0   58    0

>  <minimizedAffinity>  (129) 
-6.49626

>  <CNNscore>  (129) 
0.4639866054

>  <CNNaffinity>  (129) 
4.0579729080

>  <CNN_VS>  (129) 
1.8828450441

>  <CNNaffinity_variance>  (129) 
0.4952707291

$$$$
130
     RDKit          3D

 43 45  0  0  0  0  0  0  0  0999 V2000
   15.9060   70.4092   -3.6638 P   0  0  2  0  0  0  0  0  0  0  0  0
   16.1247   68.9145   -4.2428 O   0  0  0  0  0  0  0  0  0  0  0  0
   15.3173   70.4750   -2.2852 O   0  0  0  0  0  0  0  0  0  0  0  0
   15.0618   71.1558   -4.8247 O   0  0  0  0  0  0  0  0  0  0  0  0
   15.6728   72.2271   -5.5224 C   0  0  0  0  0  0  0  0  0  0  0  0
   16.2767   72.8877   -7.7524 O   0  0  0  0  0  0  0  0  0  0  0  0
   14.5194   70.6469   -8.6912 O   0  0  0  0  0  0  0  0  0  0  0  0
   17.0177   69.5768   -8.9151 O   0  0  0  0  0  0  0  0  0  0  0  0
   15.3626   70.7114   -7.5422 C   0  0  1  0  0  0  0  0  0  0  0  0
   16.8162   70.5884   -7.9492 C   0  0  2  0  0  0  0  0  0  0  0  0
   15.3043   72.1328   -6.9967 C   0  0  1  0  0  0  0  0  0  0  0  0
   17.1113   71.9780   -8.4877 C   0  0  2  0  0  0  0  0  0  0  0  0
   14.5400   69.7482   -9.0571 H   0  0  0  0  0  0  0  0  0  0  0  0
   16.8169   68.7120   -8.5245 H   0  0  0  0  0  0  0  0  0  0  0  0
   19.2371   71.0991  -10.1268 O   0  0  0  0  0  0  0  0  0  0  0  0
   22.3404   73.4887   -7.6978 O   0  0  0  0  0  0  0  0  0  0  0  0
   18.4848   72.3552   -8.3065 N   0  0  0  0  0  0  0  0  0  0  0  0
   20.7805   72.2898   -8.9161 N   0  0  0  0  0  0  0  0  0  0  0  0
   19.4756   71.8574   -9.1846 C   0  0  0  0  0  0  0  0  0  0  0  0
   18.8375   73.2099   -7.2678 C   0  0  0  0  0  0  0  0  0  0  0  0
   20.0867   73.6117   -7.0245 C   0  0  0  0  0  0  0  0  0  0  0  0
   21.1814   73.1374   -7.8955 C   0  0  0  0  0  0  0  0  0  0  0  0
   21.4875   71.9555   -9.5146 H   0  0  0  0  0  0  0  0  0  0  0  0
   17.3748   71.0704   -3.8003 O   0  0  0  0  0  0  0  0  0  0  0  0
   18.8484   70.4236   -3.6484 P   0  0  2  0  0  0  0  0  0  0  0  0
   19.2846   70.1309   -5.1786 O   0  0  0  0  0  0  0  0  0  0  0  0
   18.9038   69.2233   -2.7483 O   0  0  0  0  0  0  0  0  0  0  0  0
   19.7876   71.6515   -3.1845 O   0  0  0  0  0  0  0  0  0  0  0  0
   21.6372   72.7470   -4.1821 O   0  0  0  0  0  0  0  0  0  0  0  0
   22.9962   72.5723   -0.2868 O   0  0  0  0  0  0  0  0  0  0  0  0
   22.1524   75.0893   -1.3826 O   0  0  0  0  0  0  0  0  0  0  0  0
   21.5181   70.3470   -1.4016 O   0  0  0  0  0  0  0  0  0  0  0  0
   22.0162   72.7021   -1.3202 C   0  0  1  0  0  0  0  0  0  0  0  0
   22.3744   73.9228   -2.1702 C   0  0  1  0  0  0  0  0  0  0  0  0
   22.0183   71.4343   -2.1723 C   0  0  2  0  0  0  0  0  0  0  0  0
   21.5295   73.9737   -3.4503 C   0  0  1  0  0  0  0  0  0  0  0  0
   21.1881   71.6080   -3.4454 C   0  0  1  0  0  0  0  0  0  0  0  0
   22.9997   73.3738    0.2582 H   0  0  0  0  0  0  0  0  0  0  0  0
   22.6913   75.0444   -0.5771 H   0  0  0  0  0  0  0  0  0  0  0  0
   22.0522   70.2473   -0.5987 H   0  0  0  0  0  0  0  0  0  0  0  0
   23.1521   74.6740   -5.0584 O   0  0  0  0  0  0  0  0  0  0  0  0
   21.9780   75.0930   -4.3875 C   0  0  0  0  0  0  0  0  0  0  0  0
   23.4489   75.3763   -5.6586 H   0  0  0  0  0  0  0  0  0  0  0  0
 25 28  1  0
 25 24  1  0
 25 26  1  6
 25 27  2  0
  1  4  1  0
  1 24  1  0
  1  2  1  6
  1  3  2  0
  6 11  1  0
  6 12  1  0
 29 36  1  0
 29 37  1  0
  9  7  1  6
  7 13  1  0
 10  8  1  6
  8 14  1  0
 37 28  1  1
  4  5  1  0
 33 30  1  1
 30 38  1  0
 34 31  1  1
 31 39  1  0
 35 32  1  1
 32 40  1  0
 41 42  1  0
 41 43  1  0
 15 19  2  0
 16 22  2  0
 12 17  1  1
 17 19  1  0
 17 20  1  0
 18 19  1  0
 18 22  1  0
 18 23  1  0
  9 10  1  0
  9 11  1  0
 10 12  1  0
 11  5  1  1
 33 34  1  0
 33 35  1  0
 34 36  1  0
 35 37  1  0
 36 42  1  6
 20 21  2  0
 21 22  1  0
M  CHG  2   2  -1  26  -1
M  END
>  <COMPND>  (130) 
    8629 

>  <AUTHOR>  (130) 
    GENERATED BY OPEN BABEL 3.1.1

>  <MASTER>  (130) 
        0    0    0    0    0    0    0    0   58    0   58    0

>  <minimizedAffinity>  (130) 
-8.16971

>  <CNNscore>  (130) 
0.4562385082

>  <CNNaffinity>  (130) 
4.1985559464

>  <CNN_VS>  (130) 
1.9155429602

>  <CNNaffinity_variance>  (130) 
0.5711828470

$$$$
131
     RDKit          3D

 43 45  0  0  0  0  0  0  0  0999 V2000
   16.9524   73.6889   -5.5840 P   0  0  2  0  0  0  0  0  0  0  0  0
   15.7883   73.1348   -6.5613 O   0  0  0  0  0  0  0  0  0  0  0  0
   16.7169   75.0652   -5.0347 O   0  0  0  0  0  0  0  0  0  0  0  0
   18.3074   73.4995   -6.4477 O   0  0  0  0  0  0  0  0  0  0  0  0
   18.2062   73.4383   -7.8597 C   0  0  0  0  0  0  0  0  0  0  0  0
   18.8108   71.1706   -7.3439 O   0  0  0  0  0  0  0  0  0  0  0  0
   19.3285   70.8386  -10.2786 O   0  0  0  0  0  0  0  0  0  0  0  0
   16.8783   69.6811   -9.9725 O   0  0  0  0  0  0  0  0  0  0  0  0
   18.3214   71.6061   -9.6213 C   0  0  1  0  0  0  0  0  0  0  0  0
   17.2483   70.6959   -9.0613 C   0  0  2  0  0  0  0  0  0  0  0  0
   18.9315   72.1947   -8.3553 C   0  0  1  0  0  0  0  0  0  0  0  0
   17.9206   70.1457   -7.8149 C   0  0  2  0  0  0  0  0  0  0  0  0
   18.9623   70.4528  -11.0904 H   0  0  0  0  0  0  0  0  0  0  0  0
   16.4551   70.0813  -10.7480 H   0  0  0  0  0  0  0  0  0  0  0  0
   18.6329   69.3566   -5.1981 O   0  0  0  0  0  0  0  0  0  0  0  0
   14.2225   68.9699   -3.9174 O   0  0  0  0  0  0  0  0  0  0  0  0
   16.9788   69.8331   -6.7773 N   0  0  0  0  0  0  0  0  0  0  0  0
   16.4363   69.1648   -4.5625 N   0  0  0  0  0  0  0  0  0  0  0  0
   17.4405   69.4461   -5.4977 C   0  0  0  0  0  0  0  0  0  0  0  0
   15.6142   69.9120   -7.0333 C   0  0  0  0  0  0  0  0  0  0  0  0
   14.6694   69.6392   -6.1310 C   0  0  0  0  0  0  0  0  0  0  0  0
   15.0673   69.2275   -4.7693 C   0  0  0  0  0  0  0  0  0  0  0  0
   16.7343   68.8928   -3.6642 H   0  0  0  0  0  0  0  0  0  0  0  0
   17.0699   72.5288   -4.4645 O   0  0  0  0  0  0  0  0  0  0  0  0
   17.0319   72.6035   -2.8503 P   0  0  2  0  0  0  0  0  0  0  0  0
   16.6273   71.0977   -2.4185 O   0  0  0  0  0  0  0  0  0  0  0  0
   16.1255   73.6688   -2.3048 O   0  0  0  0  0  0  0  0  0  0  0  0
   18.5781   72.7518   -2.4116 O   0  0  0  0  0  0  0  0  0  0  0  0
   20.5385   73.3895   -3.5806 O   0  0  0  0  0  0  0  0  0  0  0  0
   22.0793   70.2653   -1.3634 O   0  0  0  0  0  0  0  0  0  0  0  0
   22.7753   72.9668   -0.6812 O   0  0  0  0  0  0  0  0  0  0  0  0
   19.4113   70.0727   -2.4698 O   0  0  0  0  0  0  0  0  0  0  0  0
   21.2360   71.3925   -1.6156 C   0  0  1  0  0  0  0  0  0  0  0  0
   22.1267   72.6042   -1.8970 C   0  0  1  0  0  0  0  0  0  0  0  0
   20.3444   71.0897   -2.8183 C   0  0  2  0  0  0  0  0  0  0  0  0
   21.3046   73.7827   -2.4360 C   0  0  1  0  0  0  0  0  0  0  0  0
   19.6090   72.3396   -3.3052 C   0  0  1  0  0  0  0  0  0  0  0  0
   22.6477   70.4508   -0.6005 H   0  0  0  0  0  0  0  0  0  0  0  0
   23.2905   72.2138   -0.3512 H   0  0  0  0  0  0  0  0  0  0  0  0
   19.8892   69.2868   -2.1635 H   0  0  0  0  0  0  0  0  0  0  0  0
   22.6181   75.6440   -1.7154 O   0  0  0  0  0  0  0  0  0  0  0  0
   22.1917   74.9470   -2.8715 C   0  0  0  0  0  0  0  0  0  0  0  0
   23.1839   76.3877   -1.9772 H   0  0  0  0  0  0  0  0  0  0  0  0
 25 28  1  0
 25 24  1  0
 25 26  1  1
 25 27  2  0
  1  4  1  0
  1 24  1  0
  1  2  1  6
  1  3  2  0
  6 11  1  0
  6 12  1  0
 29 36  1  0
 29 37  1  0
  9  7  1  1
  7 13  1  0
 10  8  1  6
  8 14  1  0
 37 28  1  1
  4  5  1  0
 33 30  1  6
 30 38  1  0
 34 31  1  1
 31 39  1  0
 35 32  1  1
 32 40  1  0
 41 42  1  0
 41 43  1  0
 15 19  2  0
 16 22  2  0
 12 17  1  1
 17 19  1  0
 17 20  1  0
 18 19  1  0
 18 22  1  0
 18 23  1  0
  9 10  1  0
  9 11  1  0
 10 12  1  0
 11  5  1  1
 33 34  1  0
 33 35  1  0
 34 36  1  0
 35 37  1  0
 36 42  1  6
 20 21  2  0
 21 22  1  0
M  CHG  2   2  -1  26  -1
M  END
>  <COMPND>  (131) 
    8629 

>  <AUTHOR>  (131) 
    GENERATED BY OPEN BABEL 3.1.1

>  <MASTER>  (131) 
        0    0    0    0    0    0    0    0   58    0   58    0

>  <minimizedAffinity>  (131) 
-6.92300

>  <CNNscore>  (131) 
0.4422086775

>  <CNNaffinity>  (131) 
4.1183438301

>  <CNN_VS>  (131) 
1.8211673498

>  <CNNaffinity_variance>  (131) 
0.6662722826

$$$$
132
     RDKit          3D

 43 45  0  0  0  0  0  0  0  0999 V2000
   19.5036   72.7113   -4.6859 P   0  0  2  0  0  0  0  0  0  0  0  0
   18.0829   73.4253   -4.3873 O   0  0  0  0  0  0  0  0  0  0  0  0
   20.6069   73.6420   -5.0955 O   0  0  0  0  0  0  0  0  0  0  0  0
   19.1373   71.5459   -5.7467 O   0  0  0  0  0  0  0  0  0  0  0  0
   18.4202   71.8979   -6.9170 C   0  0  0  0  0  0  0  0  0  0  0  0
   17.3958   69.7458   -6.6122 O   0  0  0  0  0  0  0  0  0  0  0  0
   16.8527   69.7949   -9.5606 O   0  0  0  0  0  0  0  0  0  0  0  0
   14.4384   70.4896   -8.4999 O   0  0  0  0  0  0  0  0  0  0  0  0
   16.8368   70.8694   -8.6223 C   0  0  1  0  0  0  0  0  0  0  0  0
   15.5995   70.7897   -7.7525 C   0  0  2  0  0  0  0  0  0  0  0  0
   17.9516   70.6272   -7.6125 C   0  0  1  0  0  0  0  0  0  0  0  0
   15.9699   69.6841   -6.7785 C   0  0  2  0  0  0  0  0  0  0  0  0
   16.1493   69.9277  -10.2161 H   0  0  0  0  0  0  0  0  0  0  0  0
   14.2444   71.2228   -9.1045 H   0  0  0  0  0  0  0  0  0  0  0  0
   14.7682   67.5942   -5.3067 O   0  0  0  0  0  0  0  0  0  0  0  0
   13.5952   70.4387   -1.8754 O   0  0  0  0  0  0  0  0  0  0  0  0
   15.3433   69.8503   -5.4974 N   0  0  0  0  0  0  0  0  0  0  0  0
   14.1853   69.0122   -3.5993 N   0  0  0  0  0  0  0  0  0  0  0  0
   14.7686   68.7362   -4.8425 C   0  0  0  0  0  0  0  0  0  0  0  0
   15.3035   71.1070   -4.9033 C   0  0  0  0  0  0  0  0  0  0  0  0
   14.7423   71.3538   -3.7178 C   0  0  0  0  0  0  0  0  0  0  0  0
   14.1193   70.2441   -2.9677 C   0  0  0  0  0  0  0  0  0  0  0  0
   13.7783   68.2514   -3.1248 H   0  0  0  0  0  0  0  0  0  0  0  0
   19.7893   71.8871   -3.3250 O   0  0  0  0  0  0  0  0  0  0  0  0
   21.1619   71.6201   -2.5139 P   0  0  2  0  0  0  0  0  0  0  0  0
   22.2772   71.5529   -3.6840 O   0  0  0  0  0  0  0  0  0  0  0  0
   21.1253   70.4121   -1.6232 O   0  0  0  0  0  0  0  0  0  0  0  0
   21.4595   73.0084   -1.7464 O   0  0  0  0  0  0  0  0  0  0  0  0
   21.6586   73.2743    0.6002 O   0  0  0  0  0  0  0  0  0  0  0  0
   20.2185   77.0211   -0.3687 O   0  0  0  0  0  0  0  0  0  0  0  0
   22.9663   76.7156    0.4086 O   0  0  0  0  0  0  0  0  0  0  0  0
   19.2092   74.6851   -1.7484 O   0  0  0  0  0  0  0  0  0  0  0  0
   20.9743   75.8237   -0.5696 C   0  0  1  0  0  0  0  0  0  0  0  0
   21.9841   75.6965    0.5727 C   0  0  1  0  0  0  0  0  0  0  0  0
   20.0226   74.6289   -0.5815 C   0  0  2  0  0  0  0  0  0  0  0  0
   22.6458   74.3119    0.5755 C   0  0  1  0  0  0  0  0  0  0  0  0
   20.7815   73.3017   -0.5276 C   0  0  1  0  0  0  0  0  0  0  0  0
   20.8169   77.7836   -0.3606 H   0  0  0  0  0  0  0  0  0  0  0  0
   22.5353   77.5847    0.4081 H   0  0  0  0  0  0  0  0  0  0  0  0
   18.7338   75.5297   -1.7707 H   0  0  0  0  0  0  0  0  0  0  0  0
   24.7465   74.8176    1.5954 O   0  0  0  0  0  0  0  0  0  0  0  0
   23.5387   74.1072    1.7974 C   0  0  0  0  0  0  0  0  0  0  0  0
   25.3247   74.6967    2.3654 H   0  0  0  0  0  0  0  0  0  0  0  0
 25 28  1  0
 25 24  1  0
 25 26  1  6
 25 27  2  0
  1  4  1  0
  1 24  1  0
  1  2  1  1
  1  3  2  0
  6 11  1  0
  6 12  1  0
 29 36  1  0
 29 37  1  0
  9  7  1  6
  7 13  1  0
 10  8  1  6
  8 14  1  0
 37 28  1  6
  4  5  1  0
 33 30  1  1
 30 38  1  0
 34 31  1  6
 31 39  1  0
 35 32  1  6
 32 40  1  0
 41 42  1  0
 41 43  1  0
 15 19  2  0
 16 22  2  0
 12 17  1  1
 17 19  1  0
 17 20  1  0
 18 19  1  0
 18 22  1  0
 18 23  1  0
  9 10  1  0
  9 11  1  0
 10 12  1  0
 11  5  1  1
 33 34  1  0
 33 35  1  0
 34 36  1  0
 35 37  1  0
 36 42  1  1
 20 21  2  0
 21 22  1  0
M  CHG  2   2  -1  26  -1
M  END
>  <COMPND>  (132) 
    8629 

>  <AUTHOR>  (132) 
    GENERATED BY OPEN BABEL 3.1.1

>  <MASTER>  (132) 
        0    0    0    0    0    0    0    0   58    0   58    0

>  <minimizedAffinity>  (132) 
-6.78641

>  <CNNscore>  (132) 
0.4360292852

>  <CNNaffinity>  (132) 
4.1825928688

>  <CNN_VS>  (132) 
1.8237329721

>  <CNNaffinity_variance>  (132) 
0.1192945838

$$$$
133
     RDKit          3D

 43 45  0  0  0  0  0  0  0  0999 V2000
   21.2711   71.3513   -2.1710 P   0  0  2  0  0  0  0  0  0  0  0  0
   22.2588   71.2505   -3.4483 O   0  0  0  0  0  0  0  0  0  0  0  0
   21.9476   71.2395   -0.8363 O   0  0  0  0  0  0  0  0  0  0  0  0
   20.1291   70.2461   -2.4747 O   0  0  0  0  0  0  0  0  0  0  0  0
   19.4444   70.3044   -3.7139 C   0  0  0  0  0  0  0  0  0  0  0  0
   17.5742   71.4268   -4.7220 O   0  0  0  0  0  0  0  0  0  0  0  0
   15.9597   70.4181   -2.4053 O   0  0  0  0  0  0  0  0  0  0  0  0
   15.2931   68.6783   -4.3966 O   0  0  0  0  0  0  0  0  0  0  0  0
   17.0300   69.7837   -3.1033 C   0  0  1  0  0  0  0  0  0  0  0  0
   16.5601   69.3009   -4.4597 C   0  0  2  0  0  0  0  0  0  0  0  0
   18.0444   70.8559   -3.4813 C   0  0  1  0  0  0  0  0  0  0  0  0
   16.5388   70.5901   -5.2631 C   0  0  2  0  0  0  0  0  0  0  0  0
   15.2992   69.7532   -2.1532 H   0  0  0  0  0  0  0  0  0  0  0  0
   15.3589   67.8631   -3.8753 H   0  0  0  0  0  0  0  0  0  0  0  0
   14.5791   70.7324   -7.2922 O   0  0  0  0  0  0  0  0  0  0  0  0
   17.6481   69.7276  -10.5805 O   0  0  0  0  0  0  0  0  0  0  0  0
   16.7981   70.3705   -6.6580 N   0  0  0  0  0  0  0  0  0  0  0  0
   16.1089   70.2321   -8.9279 N   0  0  0  0  0  0  0  0  0  0  0  0
   15.7435   70.4647   -7.5958 C   0  0  0  0  0  0  0  0  0  0  0  0
   18.0865   70.0660   -7.0838 C   0  0  0  0  0  0  0  0  0  0  0  0
   18.4181   69.8458   -8.3577 C   0  0  0  0  0  0  0  0  0  0  0  0
   17.3749   69.9250   -9.4005 C   0  0  0  0  0  0  0  0  0  0  0  0
   15.3905   70.2920   -9.5988 H   0  0  0  0  0  0  0  0  0  0  0  0
   20.4985   72.7495   -2.4185 O   0  0  0  0  0  0  0  0  0  0  0  0
   21.0474   74.2684   -2.4845 P   0  0  2  0  0  0  0  0  0  0  0  0
   22.6544   74.0839   -2.4536 O   0  0  0  0  0  0  0  0  0  0  0  0
   20.5064   75.1656   -1.4092 O   0  0  0  0  0  0  0  0  0  0  0  0
   20.7219   74.7554   -3.9884 O   0  0  0  0  0  0  0  0  0  0  0  0
   19.1184   74.1148   -5.6118 O   0  0  0  0  0  0  0  0  0  0  0  0
   22.4309   74.4534   -8.0539 O   0  0  0  0  0  0  0  0  0  0  0  0
   20.3558   76.4338   -8.1964 O   0  0  0  0  0  0  0  0  0  0  0  0
   22.7067   73.3524   -5.3910 O   0  0  0  0  0  0  0  0  0  0  0  0
   21.5811   74.7964   -6.9560 C   0  0  1  0  0  0  0  0  0  0  0  0
   20.2123   75.1912   -7.5140 C   0  0  1  0  0  0  0  0  0  0  0  0
   21.4554   73.5908   -6.0264 C   0  0  2  0  0  0  0  0  0  0  0  0
   19.1715   75.3143   -6.3930 C   0  0  1  0  0  0  0  0  0  0  0  0
   20.3596   73.7969   -4.9791 C   0  0  1  0  0  0  0  0  0  0  0  0
   22.5153   75.2149   -8.6477 H   0  0  0  0  0  0  0  0  0  0  0  0
   21.0161   76.3426   -8.9013 H   0  0  0  0  0  0  0  0  0  0  0  0
   23.3918   73.2233   -6.0646 H   0  0  0  0  0  0  0  0  0  0  0  0
   17.7864   75.3347   -8.3397 O   0  0  0  0  0  0  0  0  0  0  0  0
   17.7661   75.5523   -6.9410 C   0  0  0  0  0  0  0  0  0  0  0  0
   16.8984   75.4823   -8.7022 H   0  0  0  0  0  0  0  0  0  0  0  0
 25 28  1  0
 25 24  1  0
 25 26  1  6
 25 27  2  0
  1  4  1  0
  1 24  1  0
  1  2  1  6
  1  3  2  0
  6 11  1  0
  6 12  1  0
 29 36  1  0
 29 37  1  0
  9  7  1  1
  7 13  1  0
 10  8  1  1
  8 14  1  0
 37 28  1  1
  4  5  1  0
 33 30  1  6
 30 38  1  0
 34 31  1  1
 31 39  1  0
 35 32  1  1
 32 40  1  0
 41 42  1  0
 41 43  1  0
 15 19  2  0
 16 22  2  0
 12 17  1  6
 17 19  1  0
 17 20  1  0
 18 19  1  0
 18 22  1  0
 18 23  1  0
  9 10  1  0
  9 11  1  0
 10 12  1  0
 11  5  1  6
 33 34  1  0
 33 35  1  0
 34 36  1  0
 35 37  1  0
 36 42  1  6
 20 21  2  0
 21 22  1  0
M  CHG  2   2  -1  26  -1
M  END
>  <COMPND>  (133) 
    8629 

>  <AUTHOR>  (133) 
    GENERATED BY OPEN BABEL 3.1.1

>  <MASTER>  (133) 
        0    0    0    0    0    0    0    0   58    0   58    0

>  <minimizedAffinity>  (133) 
-7.60342

>  <CNNscore>  (133) 
0.4346922636

>  <CNNaffinity>  (133) 
4.0964078903

>  <CNN_VS>  (133) 
1.7806768417

>  <CNNaffinity_variance>  (133) 
0.5594474673

$$$$
134
     RDKit          3D

 43 45  0  0  0  0  0  0  0  0999 V2000
   21.0521   73.6219   -6.5285 P   0  0  2  0  0  0  0  0  0  0  0  0
   20.2439   74.9952   -6.8081 O   0  0  0  0  0  0  0  0  0  0  0  0
   22.4035   73.5390   -7.1752 O   0  0  0  0  0  0  0  0  0  0  0  0
   20.0025   72.4623   -6.9429 O   0  0  0  0  0  0  0  0  0  0  0  0
   19.2731   72.6100   -8.1487 C   0  0  0  0  0  0  0  0  0  0  0  0
   18.7656   70.3395   -7.5479 O   0  0  0  0  0  0  0  0  0  0  0  0
   17.5619   70.0824  -10.2821 O   0  0  0  0  0  0  0  0  0  0  0  0
   15.3689   70.4191   -8.6965 O   0  0  0  0  0  0  0  0  0  0  0  0
   17.5613   71.2019   -9.3977 C   0  0  1  0  0  0  0  0  0  0  0  0
   16.5935   70.9697   -8.2562 C   0  0  2  0  0  0  0  0  0  0  0  0
   18.9030   71.2306   -8.6764 C   0  0  1  0  0  0  0  0  0  0  0  0
   17.3767   70.0181   -7.3678 C   0  0  2  0  0  0  0  0  0  0  0  0
   16.7149   70.0434  -10.7545 H   0  0  0  0  0  0  0  0  0  0  0  0
   14.9083   71.0621   -9.2578 H   0  0  0  0  0  0  0  0  0  0  0  0
   16.4147   67.9265   -5.7314 O   0  0  0  0  0  0  0  0  0  0  0  0
   16.1190   70.6915   -2.0561 O   0  0  0  0  0  0  0  0  0  0  0  0
   17.0407   70.1634   -5.9795 N   0  0  0  0  0  0  0  0  0  0  0  0
   16.2685   69.3049   -3.9027 N   0  0  0  0  0  0  0  0  0  0  0  0
   16.5650   69.0504   -5.2478 C   0  0  0  0  0  0  0  0  0  0  0  0
   17.1842   71.3988   -5.3573 C   0  0  0  0  0  0  0  0  0  0  0  0
   16.8958   71.6253   -4.0741 C   0  0  0  0  0  0  0  0  0  0  0  0
   16.3932   70.5152   -3.2391 C   0  0  0  0  0  0  0  0  0  0  0  0
   15.9351   68.5444   -3.3733 H   0  0  0  0  0  0  0  0  0  0  0  0
   21.0721   73.5341   -4.9146 O   0  0  0  0  0  0  0  0  0  0  0  0
   22.2716   73.1979   -3.8845 P   0  0  2  0  0  0  0  0  0  0  0  0
   23.5137   74.0539   -4.4693 O   0  0  0  0  0  0  0  0  0  0  0  0
   22.5515   71.7317   -3.7232 O   0  0  0  0  0  0  0  0  0  0  0  0
   21.8619   73.9548   -2.5192 O   0  0  0  0  0  0  0  0  0  0  0  0
   23.0434   75.5291   -1.1993 O   0  0  0  0  0  0  0  0  0  0  0  0
   21.2261   73.3717    1.8162 O   0  0  0  0  0  0  0  0  0  0  0  0
   20.3021   76.0236    1.2151 O   0  0  0  0  0  0  0  0  0  0  0  0
   22.2297   72.0081   -0.5317 O   0  0  0  0  0  0  0  0  0  0  0  0
   21.3249   73.9752    0.5234 C   0  0  1  0  0  0  0  0  0  0  0  0
   21.5193   75.4811    0.7107 C   0  0  1  0  0  0  0  0  0  0  0  0
   22.5126   73.3683   -0.2213 C   0  0  2  0  0  0  0  0  0  0  0  0
   21.8989   76.1595   -0.6125 C   0  0  1  0  0  0  0  0  0  0  0  0
   22.8368   74.1470   -1.4975 C   0  0  1  0  0  0  0  0  0  0  0  0
   20.4736   73.7523    2.2941 H   0  0  0  0  0  0  0  0  0  0  0  0
   20.0735   75.5864    2.0504 H   0  0  0  0  0  0  0  0  0  0  0  0
   22.0264   71.5258    0.2844 H   0  0  0  0  0  0  0  0  0  0  0  0
   22.5307   77.8522    0.9510 O   0  0  0  0  0  0  0  0  0  0  0  0
   22.2511   77.6328   -0.4194 C   0  0  0  0  0  0  0  0  0  0  0  0
   22.7568   78.7857    1.0889 H   0  0  0  0  0  0  0  0  0  0  0  0
 25 28  1  0
 25 24  1  0
 25 26  1  6
 25 27  2  0
  1  4  1  0
  1 24  1  0
  1  2  1  1
  1  3  2  0
  6 11  1  0
  6 12  1  0
 29 36  1  0
 29 37  1  0
  9  7  1  6
  7 13  1  0
 10  8  1  6
  8 14  1  0
 37 28  1  6
  4  5  1  0
 33 30  1  1
 30 38  1  0
 34 31  1  6
 31 39  1  0
 35 32  1  6
 32 40  1  0
 41 42  1  0
 41 43  1  0
 15 19  2  0
 16 22  2  0
 12 17  1  1
 17 19  1  0
 17 20  1  0
 18 19  1  0
 18 22  1  0
 18 23  1  0
  9 10  1  0
  9 11  1  0
 10 12  1  0
 11  5  1  1
 33 34  1  0
 33 35  1  0
 34 36  1  0
 35 37  1  0
 36 42  1  1
 20 21  2  0
 21 22  1  0
M  CHG  2   2  -1  26  -1
M  END
>  <COMPND>  (134) 
    8629 

>  <AUTHOR>  (134) 
    GENERATED BY OPEN BABEL 3.1.1

>  <MASTER>  (134) 
        0    0    0    0    0    0    0    0   58    0   58    0

>  <minimizedAffinity>  (134) 
-7.40483

>  <CNNscore>  (134) 
0.3787681460

>  <CNNaffinity>  (134) 
4.1258378029

>  <CNN_VS>  (134) 
1.5627359152

>  <CNNaffinity_variance>  (134) 
0.2210435122

$$$$
135
     RDKit          3D

 43 45  0  0  0  0  0  0  0  0999 V2000
   20.1332   74.8317   -7.1071 P   0  0  2  0  0  0  0  0  0  0  0  0
   19.5554   76.0254   -8.0338 O   0  0  0  0  0  0  0  0  0  0  0  0
   21.6143   74.6129   -7.2059 O   0  0  0  0  0  0  0  0  0  0  0  0
   19.2081   73.5606   -7.4897 O   0  0  0  0  0  0  0  0  0  0  0  0
   19.6142   72.7268   -8.5610 C   0  0  0  0  0  0  0  0  0  0  0  0
   18.2562   71.2062   -7.2893 O   0  0  0  0  0  0  0  0  0  0  0  0
   19.4317   69.0316   -8.9864 O   0  0  0  0  0  0  0  0  0  0  0  0
   16.9821   69.4136  -10.1224 O   0  0  0  0  0  0  0  0  0  0  0  0
   19.0800   70.3666   -9.3465 C   0  0  1  0  0  0  0  0  0  0  0  0
   17.5753   70.5047   -9.4483 C   0  0  2  0  0  0  0  0  0  0  0  0
   19.4034   71.2720   -8.1645 C   0  0  1  0  0  0  0  0  0  0  0  0
   17.1664   70.5814   -7.9871 C   0  0  2  0  0  0  0  0  0  0  0  0
   19.2345   68.4349   -9.7260 H   0  0  0  0  0  0  0  0  0  0  0  0
   17.2730   69.4082  -11.0477 H   0  0  0  0  0  0  0  0  0  0  0  0
   15.0478   69.8596   -6.2642 O   0  0  0  0  0  0  0  0  0  0  0  0
   12.6558   73.6560   -7.3160 O   0  0  0  0  0  0  0  0  0  0  0  0
   15.9780   71.3629   -7.7912 N   0  0  0  0  0  0  0  0  0  0  0  0
   13.8586   71.7506   -6.7892 N   0  0  0  0  0  0  0  0  0  0  0  0
   14.9735   70.9105   -6.9041 C   0  0  0  0  0  0  0  0  0  0  0  0
   15.8177   72.5635   -8.4744 C   0  0  0  0  0  0  0  0  0  0  0  0
   14.7479   73.3523   -8.3546 C   0  0  0  0  0  0  0  0  0  0  0  0
   13.6525   72.9524   -7.4478 C   0  0  0  0  0  0  0  0  0  0  0  0
   13.1458   71.4556   -6.1771 H   0  0  0  0  0  0  0  0  0  0  0  0
   19.6091   75.2313   -5.6311 O   0  0  0  0  0  0  0  0  0  0  0  0
   20.4179   75.6215   -4.2870 P   0  0  2  0  0  0  0  0  0  0  0  0
   19.3030   76.3748   -3.3886 O   0  0  0  0  0  0  0  0  0  0  0  0
   21.6634   76.4239   -4.5294 O   0  0  0  0  0  0  0  0  0  0  0  0
   20.6643   74.2145   -3.5356 O   0  0  0  0  0  0  0  0  0  0  0  0
   22.7370   74.5452   -2.4350 O   0  0  0  0  0  0  0  0  0  0  0  0
   21.8524   70.7565   -1.0515 O   0  0  0  0  0  0  0  0  0  0  0  0
   21.6527   72.9994    0.7311 O   0  0  0  0  0  0  0  0  0  0  0  0
   21.2303   71.4772   -3.7852 O   0  0  0  0  0  0  0  0  0  0  0  0
   21.5581   72.0892   -1.4788 C   0  0  1  0  0  0  0  0  0  0  0  0
   22.2814   73.0626   -0.5461 C   0  0  1  0  0  0  0  0  0  0  0  0
   22.0358   72.2688   -2.9186 C   0  0  2  0  0  0  0  0  0  0  0  0
   22.2334   74.4950   -1.0949 C   0  0  1  0  0  0  0  0  0  0  0  0
   21.9938   73.7362   -3.3488 C   0  0  1  0  0  0  0  0  0  0  0  0
   21.5511   70.6357   -0.1382 H   0  0  0  0  0  0  0  0  0  0  0  0
   21.6895   72.0897    1.0662 H   0  0  0  0  0  0  0  0  0  0  0  0
   21.2655   70.5506   -3.5025 H   0  0  0  0  0  0  0  0  0  0  0  0
   23.9526   74.6933    0.5525 O   0  0  0  0  0  0  0  0  0  0  0  0
   23.0816   75.4548   -0.2634 C   0  0  0  0  0  0  0  0  0  0  0  0
   24.4989   75.2911    1.0872 H   0  0  0  0  0  0  0  0  0  0  0  0
 25 28  1  0
 25 24  1  0
 25 26  1  1
 25 27  2  0
  1  4  1  0
  1 24  1  0
  1  2  1  6
  1  3  2  0
  6 11  1  0
  6 12  1  0
 29 36  1  0
 29 37  1  0
  9  7  1  1
  7 13  1  0
 10  8  1  1
  8 14  1  0
 37 28  1  1
  4  5  1  0
 33 30  1  1
 30 38  1  0
 34 31  1  1
 31 39  1  0
 35 32  1  6
 32 40  1  0
 41 42  1  0
 41 43  1  0
 15 19  2  0
 16 22  2  0
 12 17  1  6
 17 19  1  0
 17 20  1  0
 18 19  1  0
 18 22  1  0
 18 23  1  0
  9 10  1  0
  9 11  1  0
 10 12  1  0
 11  5  1  6
 33 34  1  0
 33 35  1  0
 34 36  1  0
 35 37  1  0
 36 42  1  1
 20 21  2  0
 21 22  1  0
M  CHG  2   2  -1  26  -1
M  END
>  <COMPND>  (135) 
    8629 

>  <AUTHOR>  (135) 
    GENERATED BY OPEN BABEL 3.1.1

>  <MASTER>  (135) 
        0    0    0    0    0    0    0    0   58    0   58    0

>  <minimizedAffinity>  (135) 
-6.73871

>  <CNNscore>  (135) 
0.3607662618

>  <CNNaffinity>  (135) 
4.0257620811

>  <CNN_VS>  (135) 
1.4523590803

>  <CNNaffinity_variance>  (135) 
0.3922042549

$$$$
136
     RDKit          3D

 43 45  0  0  0  0  0  0  0  0999 V2000
   19.3866   75.9661   -6.8608 P   0  0  2  0  0  0  0  0  0  0  0  0
   18.3513   76.8797   -6.0176 O   0  0  0  0  0  0  0  0  0  0  0  0
   19.8697   76.5755   -8.1440 O   0  0  0  0  0  0  0  0  0  0  0  0
   18.6257   74.5450   -7.0006 O   0  0  0  0  0  0  0  0  0  0  0  0
   17.7471   74.3534   -8.0957 C   0  0  0  0  0  0  0  0  0  0  0  0
   18.3835   72.0670   -7.7195 O   0  0  0  0  0  0  0  0  0  0  0  0
   17.3956   71.5306  -10.4993 O   0  0  0  0  0  0  0  0  0  0  0  0
   15.3325   70.6416   -8.9533 O   0  0  0  0  0  0  0  0  0  0  0  0
   16.8820   72.4285   -9.5168 C   0  0  1  0  0  0  0  0  0  0  0  0
   16.1592   71.6609   -8.4296 C   0  0  2  0  0  0  0  0  0  0  0  0
   18.0634   73.0191   -8.7575 C   0  0  1  0  0  0  0  0  0  0  0  0
   17.3147   71.1129   -7.6095 C   0  0  2  0  0  0  0  0  0  0  0  0
   16.6594   71.1411  -10.9974 H   0  0  0  0  0  0  0  0  0  0  0  0
   14.6128   71.0406   -9.4667 H   0  0  0  0  0  0  0  0  0  0  0  0
   18.6947   69.4242   -5.8144 O   0  0  0  0  0  0  0  0  0  0  0  0
   15.9208   70.5705   -2.3169 O   0  0  0  0  0  0  0  0  0  0  0  0
   16.9748   70.9511   -6.2240 N   0  0  0  0  0  0  0  0  0  0  0  0
   17.3125   69.9965   -4.0743 N   0  0  0  0  0  0  0  0  0  0  0  0
   17.7312   70.0774   -5.4086 C   0  0  0  0  0  0  0  0  0  0  0  0
   15.9022   71.6547   -5.6869 C   0  0  0  0  0  0  0  0  0  0  0  0
   15.5149   71.5653   -4.4128 C   0  0  0  0  0  0  0  0  0  0  0  0
   16.2523   70.6744   -3.4938 C   0  0  0  0  0  0  0  0  0  0  0  0
   17.8244   69.3936   -3.4876 H   0  0  0  0  0  0  0  0  0  0  0  0
   20.5515   75.6502   -5.7856 O   0  0  0  0  0  0  0  0  0  0  0  0
   21.9222   74.8044   -5.9232 P   0  0  2  0  0  0  0  0  0  0  0  0
   23.0514   75.8412   -5.4060 O   0  0  0  0  0  0  0  0  0  0  0  0
   22.1701   74.2537   -7.2977 O   0  0  0  0  0  0  0  0  0  0  0  0
   21.8315   73.6876   -4.7615 O   0  0  0  0  0  0  0  0  0  0  0  0
   20.3145   72.0541   -3.9571 O   0  0  0  0  0  0  0  0  0  0  0  0
   21.0763   74.0455   -0.4209 O   0  0  0  0  0  0  0  0  0  0  0  0
   22.1709   71.4229   -0.8355 O   0  0  0  0  0  0  0  0  0  0  0  0
   20.8404   75.5323   -2.8934 O   0  0  0  0  0  0  0  0  0  0  0  0
   21.3925   73.5093   -1.7084 C   0  0  1  0  0  0  0  0  0  0  0  0
   21.1660   71.9968   -1.6668 C   0  0  1  0  0  0  0  0  0  0  0  0
   20.4899   74.1595   -2.7553 C   0  0  2  0  0  0  0  0  0  0  0  0
   21.2257   71.3887   -3.0746 C   0  0  1  0  0  0  0  0  0  0  0  0
   20.5886   73.4486   -4.1062 C   0  0  1  0  0  0  0  0  0  0  0  0
   21.6463   73.6372    0.2484 H   0  0  0  0  0  0  0  0  0  0  0  0
   22.1227   71.8158    0.0503 H   0  0  0  0  0  0  0  0  0  0  0  0
   20.7736   75.9712   -2.0316 H   0  0  0  0  0  0  0  0  0  0  0  0
   19.5866   69.7678   -2.4461 O   0  0  0  0  0  0  0  0  0  0  0  0
   20.8470   69.9093   -3.0751 C   0  0  0  0  0  0  0  0  0  0  0  0
   19.3326   68.8312   -2.4395 H   0  0  0  0  0  0  0  0  0  0  0  0
 25 28  1  0
 25 24  1  0
 25 26  1  1
 25 27  2  0
  1  4  1  0
  1 24  1  0
  1  2  1  1
  1  3  2  0
  6 11  1  0
  6 12  1  0
 29 36  1  0
 29 37  1  0
  9  7  1  6
  7 13  1  0
 10  8  1  6
  8 14  1  0
 37 28  1  1
  4  5  1  0
 33 30  1  1
 30 38  1  0
 34 31  1  1
 31 39  1  0
 35 32  1  6
 32 40  1  0
 41 42  1  0
 41 43  1  0
 15 19  2  0
 16 22  2  0
 12 17  1  1
 17 19  1  0
 17 20  1  0
 18 19  1  0
 18 22  1  0
 18 23  1  0
  9 10  1  0
  9 11  1  0
 10 12  1  0
 11  5  1  1
 33 34  1  0
 33 35  1  0
 34 36  1  0
 35 37  1  0
 36 42  1  1
 20 21  2  0
 21 22  1  0
M  CHG  2   2  -1  26  -1
M  END
>  <COMPND>  (136) 
    8629 

>  <AUTHOR>  (136) 
    GENERATED BY OPEN BABEL 3.1.1

>  <MASTER>  (136) 
        0    0    0    0    0    0    0    0   58    0   58    0

>  <minimizedAffinity>  (136) 
-6.61250

>  <CNNscore>  (136) 
0.3394195139

>  <CNNaffinity>  (136) 
3.9138827324

>  <CNN_VS>  (136) 
1.3284481764

>  <CNNaffinity_variance>  (136) 
0.7492407560

$$$$
137
     RDKit          3D

 43 45  0  0  0  0  0  0  0  0999 V2000
   18.9202   73.9210   -7.3458 P   0  0  2  0  0  0  0  0  0  0  0  0
   17.8522   73.9544   -6.1310 O   0  0  0  0  0  0  0  0  0  0  0  0
   18.8887   75.1177   -8.2504 O   0  0  0  0  0  0  0  0  0  0  0  0
   18.6524   72.4937   -8.0593 O   0  0  0  0  0  0  0  0  0  0  0  0
   18.8026   71.3140   -7.2888 C   0  0  0  0  0  0  0  0  0  0  0  0
   17.4313   69.3654   -6.9789 O   0  0  0  0  0  0  0  0  0  0  0  0
   16.7492   69.6124   -9.8883 O   0  0  0  0  0  0  0  0  0  0  0  0
   14.5560   70.6819   -8.6707 O   0  0  0  0  0  0  0  0  0  0  0  0
   16.9737   70.6395   -8.9238 C   0  0  1  0  0  0  0  0  0  0  0  0
   15.7900   70.7473   -7.9853 C   0  0  2  0  0  0  0  0  0  0  0  0
   18.0802   70.1702   -7.9875 C   0  0  1  0  0  0  0  0  0  0  0  0
   16.0101   69.5604   -7.0629 C   0  0  2  0  0  0  0  0  0  0  0  0
   16.0466   69.8895  -10.4978 H   0  0  0  0  0  0  0  0  0  0  0  0
   14.4629   71.4585   -9.2442 H   0  0  0  0  0  0  0  0  0  0  0  0
   14.8112   67.5730   -5.4533 O   0  0  0  0  0  0  0  0  0  0  0  0
   14.0566   70.5512   -2.0179 O   0  0  0  0  0  0  0  0  0  0  0  0
   15.4919   69.7887   -5.7435 N   0  0  0  0  0  0  0  0  0  0  0  0
   14.4366   69.0575   -3.7440 N   0  0  0  0  0  0  0  0  0  0  0  0
   14.9086   68.7228   -5.0196 C   0  0  0  0  0  0  0  0  0  0  0  0
   15.5653   71.0581   -5.1802 C   0  0  0  0  0  0  0  0  0  0  0  0
   15.1094   71.3611   -3.9630 C   0  0  0  0  0  0  0  0  0  0  0  0
   14.4855   70.3043   -3.1408 C   0  0  0  0  0  0  0  0  0  0  0  0
   14.0258   68.3309   -3.2214 H   0  0  0  0  0  0  0  0  0  0  0  0
   20.3279   73.6889   -6.5859 O   0  0  0  0  0  0  0  0  0  0  0  0
   21.2684   74.7103   -5.7582 P   0  0  2  0  0  0  0  0  0  0  0  0
   20.2380   75.8661   -5.2890 O   0  0  0  0  0  0  0  0  0  0  0  0
   22.4556   75.2139   -6.5268 O   0  0  0  0  0  0  0  0  0  0  0  0
   21.6371   73.9177   -4.4014 O   0  0  0  0  0  0  0  0  0  0  0  0
   19.6725   72.9790   -3.4657 O   0  0  0  0  0  0  0  0  0  0  0  0
   22.3315   72.1063   -0.4294 O   0  0  0  0  0  0  0  0  0  0  0  0
   21.3689   69.9949   -2.1216 O   0  0  0  0  0  0  0  0  0  0  0  0
   22.5227   74.6294   -1.8354 O   0  0  0  0  0  0  0  0  0  0  0  0
   21.9195   72.2981   -1.7855 C   0  0  1  0  0  0  0  0  0  0  0  0
   20.8003   71.3011   -2.0922 C   0  0  1  0  0  0  0  0  0  0  0  0
   21.4240   73.7327   -1.9585 C   0  0  2  0  0  0  0  0  0  0  0  0
   20.1259   71.6206   -3.4332 C   0  0  1  0  0  0  0  0  0  0  0  0
   20.7262   73.9307   -3.3053 C   0  0  1  0  0  0  0  0  0  0  0  0
   22.6477   71.1975   -0.3130 H   0  0  0  0  0  0  0  0  0  0  0  0
   21.7918   69.8058   -1.2692 H   0  0  0  0  0  0  0  0  0  0  0  0
   22.9557   74.4944   -0.9786 H   0  0  0  0  0  0  0  0  0  0  0  0
   19.3207   69.5950   -4.4117 O   0  0  0  0  0  0  0  0  0  0  0  0
   18.9061   70.7370   -3.6849 C   0  0  0  0  0  0  0  0  0  0  0  0
   18.5547   69.0232   -4.5789 H   0  0  0  0  0  0  0  0  0  0  0  0
 25 28  1  0
 25 24  1  0
 25 26  1  1
 25 27  2  0
  1  4  1  0
  1 24  1  0
  1  2  1  1
  1  3  2  0
  6 11  1  0
  6 12  1  0
 29 36  1  0
 29 37  1  0
  9  7  1  6
  7 13  1  0
 10  8  1  6
  8 14  1  0
 37 28  1  6
  4  5  1  0
 33 30  1  1
 30 38  1  0
 34 31  1  6
 31 39  1  0
 35 32  1  6
 32 40  1  0
 41 42  1  0
 41 43  1  0
 15 19  2  0
 16 22  2  0
 12 17  1  1
 17 19  1  0
 17 20  1  0
 18 19  1  0
 18 22  1  0
 18 23  1  0
  9 10  1  0
  9 11  1  0
 10 12  1  0
 11  5  1  1
 33 34  1  0
 33 35  1  0
 34 36  1  0
 35 37  1  0
 36 42  1  1
 20 21  2  0
 21 22  1  0
M  CHG  2   2  -1  26  -1
M  END
>  <COMPND>  (137) 
    8629 

>  <AUTHOR>  (137) 
    GENERATED BY OPEN BABEL 3.1.1

>  <MASTER>  (137) 
        0    0    0    0    0    0    0    0   58    0   58    0

>  <minimizedAffinity>  (137) 
-7.44491

>  <CNNscore>  (137) 
0.3295816481

>  <CNNaffinity>  (137) 
4.1411900520

>  <CNN_VS>  (137) 
1.3648602962

>  <CNNaffinity_variance>  (137) 
0.4112987518

$$$$
138
     RDKit          3D

 43 45  0  0  0  0  0  0  0  0999 V2000
   20.5986   73.5347   -6.8228 P   0  0  2  0  0  0  0  0  0  0  0  0
   22.0986   73.2730   -7.3695 O   0  0  0  0  0  0  0  0  0  0  0  0
   19.8814   74.6851   -7.4659 O   0  0  0  0  0  0  0  0  0  0  0  0
   20.7812   73.6293   -5.2179 O   0  0  0  0  0  0  0  0  0  0  0  0
   22.0338   73.2756   -4.6579 C   0  0  0  0  0  0  0  0  0  0  0  0
   20.5502   73.2707   -2.7678 O   0  0  0  0  0  0  0  0  0  0  0  0
   22.9706   72.6603   -1.1065 O   0  0  0  0  0  0  0  0  0  0  0  0
   21.7872   70.2158   -1.3534 O   0  0  0  0  0  0  0  0  0  0  0  0
   22.6473   72.2216   -2.4250 C   0  0  1  0  0  0  0  0  0  0  0  0
   21.5639   71.1645   -2.3766 C   0  0  2  0  0  0  0  0  0  0  0  0
   21.9423   73.3670   -3.1409 C   0  0  1  0  0  0  0  0  0  0  0  0
   20.3183   72.0006   -2.1369 C   0  0  2  0  0  0  0  0  0  0  0  0
   23.4221   71.9455   -0.6298 H   0  0  0  0  0  0  0  0  0  0  0  0
   22.5904   69.7094   -1.5515 H   0  0  0  0  0  0  0  0  0  0  0  0
   17.7456   73.1639   -2.0595 O   0  0  0  0  0  0  0  0  0  0  0  0
   15.8772   69.6268   -4.3485 O   0  0  0  0  0  0  0  0  0  0  0  0
   19.1416   71.4056   -2.7052 N   0  0  0  0  0  0  0  0  0  0  0  0
   16.8174   71.4018   -3.1995 N   0  0  0  0  0  0  0  0  0  0  0  0
   17.8975   72.0719   -2.6110 C   0  0  0  0  0  0  0  0  0  0  0  0
   19.2283   70.1752   -3.3473 C   0  0  0  0  0  0  0  0  0  0  0  0
   18.1885   69.5489   -3.9022 C   0  0  0  0  0  0  0  0  0  0  0  0
   16.8528   70.1774   -3.8478 C   0  0  0  0  0  0  0  0  0  0  0  0
   15.9406   71.8469   -3.1459 H   0  0  0  0  0  0  0  0  0  0  0  0
   19.8831   72.0991   -7.0231 O   0  0  0  0  0  0  0  0  0  0  0  0
   19.2594   71.3984   -8.3395 P   0  0  2  0  0  0  0  0  0  0  0  0
   19.1798   69.8363   -7.9258 O   0  0  0  0  0  0  0  0  0  0  0  0
   20.0271   71.6664   -9.6015 O   0  0  0  0  0  0  0  0  0  0  0  0
   17.7224   71.8896   -8.3744 O   0  0  0  0  0  0  0  0  0  0  0  0
   16.9850   72.4007   -6.1808 O   0  0  0  0  0  0  0  0  0  0  0  0
   13.3938   72.7658   -8.1860 O   0  0  0  0  0  0  0  0  0  0  0  0
   14.7356   75.1222   -7.2400 O   0  0  0  0  0  0  0  0  0  0  0  0
   15.2536   70.6740   -8.9242 O   0  0  0  0  0  0  0  0  0  0  0  0
   14.8113   72.8637   -8.0238 C   0  0  1  0  0  0  0  0  0  0  0  0
   15.0960   73.8005   -6.8482 C   0  0  1  0  0  0  0  0  0  0  0  0
   15.3800   71.4722   -7.7524 C   0  0  2  0  0  0  0  0  0  0  0  0
   16.5753   73.7479   -6.4434 C   0  0  1  0  0  0  0  0  0  0  0  0
   16.8430   71.5364   -7.3099 C   0  0  1  0  0  0  0  0  0  0  0  0
   13.0265   73.6459   -8.3591 H   0  0  0  0  0  0  0  0  0  0  0  0
   13.7993   75.1416   -7.4936 H   0  0  0  0  0  0  0  0  0  0  0  0
   14.3230   70.6410   -9.1940 H   0  0  0  0  0  0  0  0  0  0  0  0
   15.7926   74.3274   -4.2615 O   0  0  0  0  0  0  0  0  0  0  0  0
   16.8503   74.5529   -5.1752 C   0  0  0  0  0  0  0  0  0  0  0  0
   15.9543   74.8333   -3.4494 H   0  0  0  0  0  0  0  0  0  0  0  0
 25 28  1  0
 25 24  1  0
 25 26  1  1
 25 27  2  0
  1  4  1  0
  1 24  1  0
  1  2  1  6
  1  3  2  0
  6 11  1  0
  6 12  1  0
 29 36  1  0
 29 37  1  0
  9  7  1  1
  7 13  1  0
 10  8  1  1
  8 14  1  0
 37 28  1  6
  4  5  1  0
 33 30  1  1
 30 38  1  0
 34 31  1  6
 31 39  1  0
 35 32  1  6
 32 40  1  0
 41 42  1  0
 41 43  1  0
 15 19  2  0
 16 22  2  0
 12 17  1  6
 17 19  1  0
 17 20  1  0
 18 19  1  0
 18 22  1  0
 18 23  1  0
  9 10  1  0
  9 11  1  0
 10 12  1  0
 11  5  1  6
 33 34  1  0
 33 35  1  0
 34 36  1  0
 35 37  1  0
 36 42  1  1
 20 21  2  0
 21 22  1  0
M  CHG  2   2  -1  26  -1
M  END
>  <COMPND>  (138) 
    8629 

>  <AUTHOR>  (138) 
    GENERATED BY OPEN BABEL 3.1.1

>  <MASTER>  (138) 
        0    0    0    0    0    0    0    0   58    0   58    0

>  <minimizedAffinity>  (138) 
-6.82490

>  <CNNscore>  (138) 
0.3248701394

>  <CNNaffinity>  (138) 
3.8452599049

>  <CNN_VS>  (138) 
1.2492101192

>  <CNNaffinity_variance>  (138) 
0.5646860003

$$$$
139
     RDKit          3D

 43 45  0  0  0  0  0  0  0  0999 V2000
   18.7952   74.8859   -6.8382 P   0  0  2  0  0  0  0  0  0  0  0  0
   18.5151   75.7985   -5.5320 O   0  0  0  0  0  0  0  0  0  0  0  0
   19.2568   75.6395   -8.0508 O   0  0  0  0  0  0  0  0  0  0  0  0
   17.4308   74.0347   -7.0171 O   0  0  0  0  0  0  0  0  0  0  0  0
   17.1561   73.4554   -8.2807 C   0  0  0  0  0  0  0  0  0  0  0  0
   18.0645   71.3745   -7.4944 O   0  0  0  0  0  0  0  0  0  0  0  0
   19.1355   71.0081  -10.2710 O   0  0  0  0  0  0  0  0  0  0  0  0
   16.9217   69.4157  -10.2728 O   0  0  0  0  0  0  0  0  0  0  0  0
   17.9069   71.5975   -9.8484 C   0  0  1  0  0  0  0  0  0  0  0  0
   16.9368   70.5253   -9.3980 C   0  0  2  0  0  0  0  0  0  0  0  0
   18.1705   72.3529   -8.5517 C   0  0  1  0  0  0  0  0  0  0  0  0
   17.4713   70.1757   -8.0195 C   0  0  2  0  0  0  0  0  0  0  0  0
   18.9923   70.5203  -11.0978 H   0  0  0  0  0  0  0  0  0  0  0  0
   16.5738   69.6890  -11.1360 H   0  0  0  0  0  0  0  0  0  0  0  0
   14.7470   70.8802   -8.2646 O   0  0  0  0  0  0  0  0  0  0  0  0
   13.5902   68.4366   -4.5321 O   0  0  0  0  0  0  0  0  0  0  0  0
   16.4365   69.7374   -7.1259 N   0  0  0  0  0  0  0  0  0  0  0  0
   14.1732   69.6628   -6.4060 N   0  0  0  0  0  0  0  0  0  0  0  0
   15.1000   70.1492   -7.3369 C   0  0  0  0  0  0  0  0  0  0  0  0
   16.7512   68.9083   -6.0547 C   0  0  0  0  0  0  0  0  0  0  0  0
   15.8559   68.4542   -5.1752 C   0  0  0  0  0  0  0  0  0  0  0  0
   14.4372   68.8376   -5.3243 C   0  0  0  0  0  0  0  0  0  0  0  0
   13.2359   69.9369   -6.5328 H   0  0  0  0  0  0  0  0  0  0  0  0
   19.8429   73.7824   -6.2927 O   0  0  0  0  0  0  0  0  0  0  0  0
   21.4482   73.8407   -6.1126 P   0  0  2  0  0  0  0  0  0  0  0  0
   21.7003   75.3201   -5.5083 O   0  0  0  0  0  0  0  0  0  0  0  0
   22.2193   73.5441   -7.3662 O   0  0  0  0  0  0  0  0  0  0  0  0
   21.7580   72.8404   -4.8843 O   0  0  0  0  0  0  0  0  0  0  0  0
   19.8529   73.0599   -3.4919 O   0  0  0  0  0  0  0  0  0  0  0  0
   21.8993   70.1754   -1.3604 O   0  0  0  0  0  0  0  0  0  0  0  0
   19.5407   69.4473   -2.8283 O   0  0  0  0  0  0  0  0  0  0  0  0
   23.3509   72.3342   -2.6301 O   0  0  0  0  0  0  0  0  0  0  0  0
   21.4529   70.8542   -2.5375 C   0  0  1  0  0  0  0  0  0  0  0  0
   19.9245   70.7957   -2.5742 C   0  0  1  0  0  0  0  0  0  0  0  0
   21.9346   72.3031   -2.4911 C   0  0  2  0  0  0  0  0  0  0  0  0
   19.3605   71.7250   -3.6575 C   0  0  1  0  0  0  0  0  0  0  0  0
   21.2761   73.1523   -3.5798 C   0  0  1  0  0  0  0  0  0  0  0  0
   21.5972   69.2547   -1.3839 H   0  0  0  0  0  0  0  0  0  0  0  0
   19.9036   68.8709   -2.1375 H   0  0  0  0  0  0  0  0  0  0  0  0
   23.7559   71.7932   -1.9350 H   0  0  0  0  0  0  0  0  0  0  0  0
   17.3653   72.2141   -4.8777 O   0  0  0  0  0  0  0  0  0  0  0  0
   17.8361   71.8025   -3.6076 C   0  0  0  0  0  0  0  0  0  0  0  0
   16.3965   72.2676   -4.8609 H   0  0  0  0  0  0  0  0  0  0  0  0
 25 28  1  0
 25 24  1  0
 25 26  1  1
 25 27  2  0
  1  4  1  0
  1 24  1  0
  1  2  1  1
  1  3  2  0
  6 11  1  0
  6 12  1  0
 29 36  1  0
 29 37  1  0
  9  7  1  1
  7 13  1  0
 10  8  1  6
  8 14  1  0
 37 28  1  6
  4  5  1  0
 33 30  1  1
 30 38  1  0
 34 31  1  6
 31 39  1  0
 35 32  1  6
 32 40  1  0
 41 42  1  0
 41 43  1  0
 15 19  2  0
 16 22  2  0
 12 17  1  1
 17 19  1  0
 17 20  1  0
 18 19  1  0
 18 22  1  0
 18 23  1  0
  9 10  1  0
  9 11  1  0
 10 12  1  0
 11  5  1  1
 33 34  1  0
 33 35  1  0
 34 36  1  0
 35 37  1  0
 36 42  1  1
 20 21  2  0
 21 22  1  0
M  CHG  2   2  -1  26  -1
M  END
>  <COMPND>  (139) 
    8629 

>  <AUTHOR>  (139) 
    GENERATED BY OPEN BABEL 3.1.1

>  <MASTER>  (139) 
        0    0    0    0    0    0    0    0   58    0   58    0

>  <minimizedAffinity>  (139) 
-7.70769

>  <CNNscore>  (139) 
0.2866807282

>  <CNNaffinity>  (139) 
3.9630839825

>  <CNN_VS>  (139) 
1.1361397505

>  <CNNaffinity_variance>  (139) 
0.7915259600

$$$$
140
     RDKit          3D

 43 45  0  0  0  0  0  0  0  0999 V2000
   19.8589   74.5475   -6.2611 P   0  0  2  0  0  0  0  0  0  0  0  0
   19.4047   75.6103   -7.3931 O   0  0  0  0  0  0  0  0  0  0  0  0
   21.3350   74.4952   -5.9968 O   0  0  0  0  0  0  0  0  0  0  0  0
   19.1809   73.1581   -6.7384 O   0  0  0  0  0  0  0  0  0  0  0  0
   19.6777   72.5299   -7.9074 C   0  0  0  0  0  0  0  0  0  0  0  0
   18.1873   70.8526   -7.0477 O   0  0  0  0  0  0  0  0  0  0  0  0
   19.3817   69.0113   -9.0908 O   0  0  0  0  0  0  0  0  0  0  0  0
   17.0229   69.7367  -10.2512 O   0  0  0  0  0  0  0  0  0  0  0  0
   19.1037   70.4073   -9.1873 C   0  0  1  0  0  0  0  0  0  0  0  0
   17.6144   70.6377   -9.3373 C   0  0  2  0  0  0  0  0  0  0  0  0
   19.3878   71.0373   -7.8294 C   0  0  1  0  0  0  0  0  0  0  0  0
   17.1196   70.4370   -7.9150 C   0  0  2  0  0  0  0  0  0  0  0  0
   19.2079   68.5873   -9.9464 H   0  0  0  0  0  0  0  0  0  0  0  0
   17.3697   69.9045  -11.1413 H   0  0  0  0  0  0  0  0  0  0  0  0
   14.9725   69.5648   -6.3004 O   0  0  0  0  0  0  0  0  0  0  0  0
   12.6909   73.5278   -6.8748 O   0  0  0  0  0  0  0  0  0  0  0  0
   15.9519   71.2206   -7.6256 N   0  0  0  0  0  0  0  0  0  0  0  0
   13.8383   71.5389   -6.5876 N   0  0  0  0  0  0  0  0  0  0  0  0
   14.9305   70.6891   -6.8042 C   0  0  0  0  0  0  0  0  0  0  0  0
   15.8283   72.5011   -8.1537 C   0  0  0  0  0  0  0  0  0  0  0  0
   14.7797   73.2982   -7.9387 C   0  0  0  0  0  0  0  0  0  0  0  0
   13.6688   72.8188   -7.0913 C   0  0  0  0  0  0  0  0  0  0  0  0
   13.1142   71.1897   -6.0187 H   0  0  0  0  0  0  0  0  0  0  0  0
   18.9615   74.9701   -4.9848 O   0  0  0  0  0  0  0  0  0  0  0  0
   19.2883   75.9356   -3.7302 P   0  0  2  0  0  0  0  0  0  0  0  0
   17.8750   76.0174   -2.9470 O   0  0  0  0  0  0  0  0  0  0  0  0
   19.8622   77.2690   -4.1131 O   0  0  0  0  0  0  0  0  0  0  0  0
   20.2361   75.0504   -2.7695 O   0  0  0  0  0  0  0  0  0  0  0  0
   20.1765   72.7248   -2.3170 O   0  0  0  0  0  0  0  0  0  0  0  0
   21.3203   74.0926    1.4075 O   0  0  0  0  0  0  0  0  0  0  0  0
   23.2308   72.7358   -0.2530 O   0  0  0  0  0  0  0  0  0  0  0  0
   19.3886   75.5852   -0.1483 O   0  0  0  0  0  0  0  0  0  0  0  0
   21.2733   74.0907   -0.0219 C   0  0  1  0  0  0  0  0  0  0  0  0
   21.8309   72.7552   -0.5183 C   0  0  1  0  0  0  0  0  0  0  0  0
   19.8252   74.2700   -0.4739 C   0  0  2  0  0  0  0  0  0  0  0  0
   21.5688   72.5688   -2.0188 C   0  0  1  0  0  0  0  0  0  0  0  0
   19.6659   74.0146   -1.9738 C   0  0  1  0  0  0  0  0  0  0  0  0
   22.2371   73.9797    1.7011 H   0  0  0  0  0  0  0  0  0  0  0  0
   23.3826   72.8550    0.6978 H   0  0  0  0  0  0  0  0  0  0  0  0
   19.4942   75.7344    0.8038 H   0  0  0  0  0  0  0  0  0  0  0  0
   21.8087   70.2647   -1.4334 O   0  0  0  0  0  0  0  0  0  0  0  0
   21.9754   71.1784   -2.5020 C   0  0  0  0  0  0  0  0  0  0  0  0
   22.0635   69.3754   -1.7265 H   0  0  0  0  0  0  0  0  0  0  0  0
 25 28  1  0
 25 24  1  0
 25 26  1  1
 25 27  2  0
  1  4  1  0
  1 24  1  0
  1  2  1  6
  1  3  2  0
  6 11  1  0
  6 12  1  0
 29 36  1  0
 29 37  1  0
  9  7  1  1
  7 13  1  0
 10  8  1  6
  8 14  1  0
 37 28  1  6
  4  5  1  0
 33 30  1  1
 30 38  1  0
 34 31  1  6
 31 39  1  0
 35 32  1  6
 32 40  1  0
 41 42  1  0
 41 43  1  0
 15 19  2  0
 16 22  2  0
 12 17  1  1
 17 19  1  0
 17 20  1  0
 18 19  1  0
 18 22  1  0
 18 23  1  0
  9 10  1  0
  9 11  1  0
 10 12  1  0
 11  5  1  6
 33 34  1  0
 33 35  1  0
 34 36  1  0
 35 37  1  0
 36 42  1  1
 20 21  2  0
 21 22  1  0
M  CHG  2   2  -1  26  -1
M  END
>  <COMPND>  (140) 
    8629 

>  <AUTHOR>  (140) 
    GENERATED BY OPEN BABEL 3.1.1

>  <MASTER>  (140) 
        0    0    0    0    0    0    0    0   58    0   58    0

>  <minimizedAffinity>  (140) 
-6.44328

>  <CNNscore>  (140) 
0.2739891708

>  <CNNaffinity>  (140) 
3.8137142658

>  <CNN_VS>  (140) 
1.0449163914

>  <CNNaffinity_variance>  (140) 
0.3778080344

$$$$
141
     RDKit          3D

 43 45  0  0  0  0  0  0  0  0999 V2000
   19.1685   73.5712   -7.9004 P   0  0  2  0  0  0  0  0  0  0  0  0
   18.0874   73.0089   -6.8363 O   0  0  0  0  0  0  0  0  0  0  0  0
   18.9441   74.9870   -8.3437 O   0  0  0  0  0  0  0  0  0  0  0  0
   19.1716   72.4591   -9.0756 O   0  0  0  0  0  0  0  0  0  0  0  0
   19.8668   71.2442   -8.8549 C   0  0  0  0  0  0  0  0  0  0  0  0
   18.7985   69.1912   -8.2088 O   0  0  0  0  0  0  0  0  0  0  0  0
   17.1046   69.5191  -10.6612 O   0  0  0  0  0  0  0  0  0  0  0  0
   15.4448   70.3744   -8.6737 O   0  0  0  0  0  0  0  0  0  0  0  0
   17.6088   70.5153   -9.7731 C   0  0  1  0  0  0  0  0  0  0  0  0
   16.8377   70.4966   -8.4698 C   0  0  2  0  0  0  0  0  0  0  0  0
   19.0000   70.0844   -9.3259 C   0  0  1  0  0  0  0  0  0  0  0  0
   17.4342   69.2883   -7.7681 C   0  0  2  0  0  0  0  0  0  0  0  0
   16.2168   69.7725  -10.9606 H   0  0  0  0  0  0  0  0  0  0  0  0
   15.1128   71.1673   -9.1229 H   0  0  0  0  0  0  0  0  0  0  0  0
   15.1711   68.7949   -6.1516 O   0  0  0  0  0  0  0  0  0  0  0  0
   17.4734   69.8270   -2.2948 O   0  0  0  0  0  0  0  0  0  0  0  0
   17.4142   69.4199   -6.3386 N   0  0  0  0  0  0  0  0  0  0  0  0
   16.3194   69.3090   -4.2325 N   0  0  0  0  0  0  0  0  0  0  0  0
   16.2259   69.1493   -5.6210 C   0  0  0  0  0  0  0  0  0  0  0  0
   18.5643   69.8131   -5.6627 C   0  0  0  0  0  0  0  0  0  0  0  0
   18.6366   69.9620   -4.3384 C   0  0  0  0  0  0  0  0  0  0  0  0
   17.4390   69.6989   -3.5147 C   0  0  0  0  0  0  0  0  0  0  0  0
   15.5037   69.1264   -3.7119 H   0  0  0  0  0  0  0  0  0  0  0  0
   20.5796   73.3155   -7.1545 O   0  0  0  0  0  0  0  0  0  0  0  0
   21.1403   73.8442   -5.7335 P   0  0  2  0  0  0  0  0  0  0  0  0
   21.0199   75.4524   -5.8623 O   0  0  0  0  0  0  0  0  0  0  0  0
   22.5171   73.3515   -5.3935 O   0  0  0  0  0  0  0  0  0  0  0  0
   20.0007   73.4342   -4.6666 O   0  0  0  0  0  0  0  0  0  0  0  0
   19.1527   75.4775   -3.8168 O   0  0  0  0  0  0  0  0  0  0  0  0
   16.8470   72.8442   -1.6259 O   0  0  0  0  0  0  0  0  0  0  0  0
   15.6434   74.3505   -3.7544 O   0  0  0  0  0  0  0  0  0  0  0  0
   19.6257   72.2321   -2.1587 O   0  0  0  0  0  0  0  0  0  0  0  0
   17.5600   73.3057   -2.7766 C   0  0  1  0  0  0  0  0  0  0  0  0
   16.9378   74.6287   -3.2276 C   0  0  1  0  0  0  0  0  0  0  0  0
   19.0296   73.5005   -2.4083 C   0  0  2  0  0  0  0  0  0  0  0  0
   17.8089   75.3180   -4.2864 C   0  0  1  0  0  0  0  0  0  0  0  0
   19.7945   74.2387   -3.5084 C   0  0  1  0  0  0  0  0  0  0  0  0
   15.9132   72.7180   -1.8532 H   0  0  0  0  0  0  0  0  0  0  0  0
   15.1037   73.9149   -3.0761 H   0  0  0  0  0  0  0  0  0  0  0  0
   19.1325   71.7750   -1.4604 H   0  0  0  0  0  0  0  0  0  0  0  0
   17.3952   77.5309   -3.4856 O   0  0  0  0  0  0  0  0  0  0  0  0
   17.2899   76.7113   -4.6352 C   0  0  0  0  0  0  0  0  0  0  0  0
   17.0687   78.4209   -3.6928 H   0  0  0  0  0  0  0  0  0  0  0  0
 25 28  1  0
 25 24  1  0
 25 26  1  6
 25 27  2  0
  1  4  1  0
  1 24  1  0
  1  2  1  1
  1  3  2  0
  6 11  1  0
  6 12  1  0
 29 36  1  0
 29 37  1  0
  9  7  1  6
  7 13  1  0
 10  8  1  6
  8 14  1  0
 37 28  1  6
  4  5  1  0
 33 30  1  1
 30 38  1  0
 34 31  1  6
 31 39  1  0
 35 32  1  6
 32 40  1  0
 41 42  1  0
 41 43  1  0
 15 19  2  0
 16 22  2  0
 12 17  1  1
 17 19  1  0
 17 20  1  0
 18 19  1  0
 18 22  1  0
 18 23  1  0
  9 10  1  0
  9 11  1  0
 10 12  1  0
 11  5  1  1
 33 34  1  0
 33 35  1  0
 34 36  1  0
 35 37  1  0
 36 42  1  1
 20 21  2  0
 21 22  1  0
M  CHG  2   2  -1  26  -1
M  END
>  <COMPND>  (141) 
    8629 

>  <AUTHOR>  (141) 
    GENERATED BY OPEN BABEL 3.1.1

>  <MASTER>  (141) 
        0    0    0    0    0    0    0    0   58    0   58    0

>  <minimizedAffinity>  (141) 
-6.83992

>  <CNNscore>  (141) 
0.6845996380

>  <CNNaffinity>  (141) 
4.1998763084

>  <CNN_VS>  (141) 
2.8752338886

>  <CNNaffinity_variance>  (141) 
0.4720162451

$$$$
142
     RDKit          3D

 43 45  0  0  0  0  0  0  0  0999 V2000
   20.3418   71.6258   -2.7745 P   0  0  2  0  0  0  0  0  0  0  0  0
   20.9676   70.2756   -2.1399 O   0  0  0  0  0  0  0  0  0  0  0  0
   19.7367   72.5723   -1.7798 O   0  0  0  0  0  0  0  0  0  0  0  0
   19.3437   71.0864   -3.9281 O   0  0  0  0  0  0  0  0  0  0  0  0
   18.4200   70.0635   -3.5990 C   0  0  0  0  0  0  0  0  0  0  0  0
   16.8870   71.3256   -4.9520 O   0  0  0  0  0  0  0  0  0  0  0  0
   14.7108   70.1265   -3.2735 O   0  0  0  0  0  0  0  0  0  0  0  0
   14.6159   68.6128   -5.5398 O   0  0  0  0  0  0  0  0  0  0  0  0
   15.9330   69.5408   -3.7190 C   0  0  1  0  0  0  0  0  0  0  0  0
   15.8497   69.2085   -5.1942 C   0  0  2  0  0  0  0  0  0  0  0  0
   17.0068   70.6215   -3.6965 C   0  0  1  0  0  0  0  0  0  0  0  0
   16.0405   70.5724   -5.8357 C   0  0  2  0  0  0  0  0  0  0  0  0
   14.0098   69.4553   -3.2790 H   0  0  0  0  0  0  0  0  0  0  0  0
   14.5419   67.7477   -5.1074 H   0  0  0  0  0  0  0  0  0  0  0  0
   14.6440   70.3309   -8.2790 O   0  0  0  0  0  0  0  0  0  0  0  0
   18.5542   70.2579  -10.7174 O   0  0  0  0  0  0  0  0  0  0  0  0
   16.6685   70.4887   -7.1241 N   0  0  0  0  0  0  0  0  0  0  0  0
   16.5921   70.2949   -9.4912 N   0  0  0  0  0  0  0  0  0  0  0  0
   15.8762   70.3684   -8.2895 C   0  0  0  0  0  0  0  0  0  0  0  0
   18.0551   70.5264   -7.2229 C   0  0  0  0  0  0  0  0  0  0  0  0
   18.7226   70.4539   -8.3763 C   0  0  0  0  0  0  0  0  0  0  0  0
   17.9696   70.3269   -9.6407 C   0  0  0  0  0  0  0  0  0  0  0  0
   16.0611   70.2104  -10.3161 H   0  0  0  0  0  0  0  0  0  0  0  0
   21.5770   72.2368   -3.6194 O   0  0  0  0  0  0  0  0  0  0  0  0
   21.8331   73.7231   -4.2010 P   0  0  2  0  0  0  0  0  0  0  0  0
   23.0815   73.5170   -5.2093 O   0  0  0  0  0  0  0  0  0  0  0  0
   22.0556   74.7672   -3.1453 O   0  0  0  0  0  0  0  0  0  0  0  0
   20.5716   74.0068   -5.1669 O   0  0  0  0  0  0  0  0  0  0  0  0
   20.2429   76.2626   -5.8149 O   0  0  0  0  0  0  0  0  0  0  0  0
   16.5405   74.7394   -6.8265 O   0  0  0  0  0  0  0  0  0  0  0  0
   18.4040   75.4305   -8.8996 O   0  0  0  0  0  0  0  0  0  0  0  0
   17.8715   73.8236   -4.4245 O   0  0  0  0  0  0  0  0  0  0  0  0
   17.9609   74.7100   -6.6623 C   0  0  1  0  0  0  0  0  0  0  0  0
   18.5675   75.8099   -7.5359 C   0  0  1  0  0  0  0  0  0  0  0  0
   18.2983   74.9446   -5.1910 C   0  0  2  0  0  0  0  0  0  0  0  0
   20.0535   76.0171   -7.2133 C   0  0  1  0  0  0  0  0  0  0  0  0
   19.7947   75.1880   -4.9866 C   0  0  1  0  0  0  0  0  0  0  0  0
   16.3195   74.5906   -7.7584 H   0  0  0  0  0  0  0  0  0  0  0  0
   17.4614   75.3023   -9.0900 H   0  0  0  0  0  0  0  0  0  0  0  0
   16.9226   73.6802   -4.5623 H   0  0  0  0  0  0  0  0  0  0  0  0
   21.8387   76.8061   -8.5916 O   0  0  0  0  0  0  0  0  0  0  0  0
   20.6392   77.2138   -7.9596 C   0  0  0  0  0  0  0  0  0  0  0  0
   22.2225   77.5575   -9.0709 H   0  0  0  0  0  0  0  0  0  0  0  0
 25 28  1  0
 25 24  1  0
 25 26  1  6
 25 27  2  0
  1  4  1  0
  1 24  1  0
  1  2  1  1
  1  3  2  0
  6 11  1  0
  6 12  1  0
 29 36  1  0
 29 37  1  0
  9  7  1  6
  7 13  1  0
 10  8  1  1
  8 14  1  0
 37 28  1  6
  4  5  1  0
 33 30  1  1
 30 38  1  0
 34 31  1  6
 31 39  1  0
 35 32  1  1
 32 40  1  0
 41 42  1  0
 41 43  1  0
 15 19  2  0
 16 22  2  0
 12 17  1  6
 17 19  1  0
 17 20  1  0
 18 19  1  0
 18 22  1  0
 18 23  1  0
  9 10  1  0
  9 11  1  0
 10 12  1  0
 11  5  1  6
 33 34  1  0
 33 35  1  0
 34 36  1  0
 35 37  1  0
 36 42  1  6
 20 21  2  0
 21 22  1  0
M  CHG  2   2  -1  26  -1
M  END
>  <COMPND>  (142) 
    8629 

>  <AUTHOR>  (142) 
    GENERATED BY OPEN BABEL 3.1.1

>  <MASTER>  (142) 
        0    0    0    0    0    0    0    0   58    0   58    0

>  <minimizedAffinity>  (142) 
-6.49238

>  <CNNscore>  (142) 
0.6585913897

>  <CNNaffinity>  (142) 
4.3578362465

>  <CNN_VS>  (142) 
2.8700335026

>  <CNNaffinity_variance>  (142) 
0.3038547635

$$$$
143
     RDKit          3D

 43 45  0  0  0  0  0  0  0  0999 V2000
   18.9419   73.8476   -7.9605 P   0  0  2  0  0  0  0  0  0  0  0  0
   17.8826   73.2632   -6.8863 O   0  0  0  0  0  0  0  0  0  0  0  0
   18.6082   75.2051   -8.5055 O   0  0  0  0  0  0  0  0  0  0  0  0
   19.0771   72.6645   -9.0558 O   0  0  0  0  0  0  0  0  0  0  0  0
   19.7698   71.4828   -8.6928 C   0  0  0  0  0  0  0  0  0  0  0  0
   18.8195   69.3557   -8.1044 O   0  0  0  0  0  0  0  0  0  0  0  0
   17.1773   69.6096  -10.6003 O   0  0  0  0  0  0  0  0  0  0  0  0
   15.4104   70.3265   -8.6508 O   0  0  0  0  0  0  0  0  0  0  0  0
   17.5905   70.6231   -9.6853 C   0  0  1  0  0  0  0  0  0  0  0  0
   16.7861   70.5355   -8.4051 C   0  0  2  0  0  0  0  0  0  0  0  0
   18.9938   70.2765   -9.2035 C   0  0  1  0  0  0  0  0  0  0  0  0
   17.4400   69.3580   -7.7021 C   0  0  2  0  0  0  0  0  0  0  0  0
   16.2837   69.8095  -10.9220 H   0  0  0  0  0  0  0  0  0  0  0  0
   15.0403   71.1029   -9.0992 H   0  0  0  0  0  0  0  0  0  0  0  0
   15.1170   68.8628   -6.1735 O   0  0  0  0  0  0  0  0  0  0  0  0
   17.2934   69.8089   -2.2227 O   0  0  0  0  0  0  0  0  0  0  0  0
   17.3714   69.4670   -6.2722 N   0  0  0  0  0  0  0  0  0  0  0  0
   16.2026   69.3341   -4.2075 N   0  0  0  0  0  0  0  0  0  0  0  0
   16.1561   69.1975   -5.6008 C   0  0  0  0  0  0  0  0  0  0  0  0
   18.5010   69.8373   -5.5504 C   0  0  0  0  0  0  0  0  0  0  0  0
   18.5285   69.9643   -4.2222 C   0  0  0  0  0  0  0  0  0  0  0  0
   17.3003   69.7007   -3.4450 C   0  0  0  0  0  0  0  0  0  0  0  0
   15.3675   69.1517   -3.7186 H   0  0  0  0  0  0  0  0  0  0  0  0
   20.3470   73.7686   -7.1652 O   0  0  0  0  0  0  0  0  0  0  0  0
   21.1536   74.8870   -6.3216 P   0  0  2  0  0  0  0  0  0  0  0  0
   20.1010   76.1121   -6.2283 O   0  0  0  0  0  0  0  0  0  0  0  0
   22.4852   75.2579   -6.9074 O   0  0  0  0  0  0  0  0  0  0  0  0
   21.2242   74.2952   -4.8217 O   0  0  0  0  0  0  0  0  0  0  0  0
   21.2565   72.1359   -3.8453 O   0  0  0  0  0  0  0  0  0  0  0  0
   18.4601   73.9278   -1.3916 O   0  0  0  0  0  0  0  0  0  0  0  0
   21.0867   73.3665   -0.3746 O   0  0  0  0  0  0  0  0  0  0  0  0
   18.4924   74.5281   -4.2232 O   0  0  0  0  0  0  0  0  0  0  0  0
   19.6344   73.8732   -2.2062 C   0  0  1  0  0  0  0  0  0  0  0  0
   20.5894   72.8416   -1.6024 C   0  0  1  0  0  0  0  0  0  0  0  0
   19.2385   73.4729   -3.6263 C   0  0  2  0  0  0  0  0  0  0  0  0
   21.7483   72.5326   -2.5598 C   0  0  1  0  0  0  0  0  0  0  0  0
   20.4626   73.1396   -4.4811 C   0  0  1  0  0  0  0  0  0  0  0  0
   18.7045   74.1819   -0.4887 H   0  0  0  0  0  0  0  0  0  0  0  0
   20.3449   73.5578    0.2207 H   0  0  0  0  0  0  0  0  0  0  0  0
   17.7201   74.7294   -3.6728 H   0  0  0  0  0  0  0  0  0  0  0  0
   21.8330   70.5465   -1.2342 O   0  0  0  0  0  0  0  0  0  0  0  0
   22.6255   71.3927   -2.0467 C   0  0  0  0  0  0  0  0  0  0  0  0
   22.3781   69.8161   -0.9008 H   0  0  0  0  0  0  0  0  0  0  0  0
 25 28  1  0
 25 24  1  0
 25 26  1  1
 25 27  2  0
  1  4  1  0
  1 24  1  0
  1  2  1  1
  1  3  2  0
  6 11  1  0
  6 12  1  0
 29 36  1  0
 29 37  1  0
  9  7  1  6
  7 13  1  0
 10  8  1  6
  8 14  1  0
 37 28  1  1
  4  5  1  0
 33 30  1  1
 30 38  1  0
 34 31  1  1
 31 39  1  0
 35 32  1  6
 32 40  1  0
 41 42  1  0
 41 43  1  0
 15 19  2  0
 16 22  2  0
 12 17  1  1
 17 19  1  0
 17 20  1  0
 18 19  1  0
 18 22  1  0
 18 23  1  0
  9 10  1  0
  9 11  1  0
 10 12  1  0
 11  5  1  1
 33 34  1  0
 33 35  1  0
 34 36  1  0
 35 37  1  0
 36 42  1  1
 20 21  2  0
 21 22  1  0
M  CHG  2   2  -1  26  -1
M  END
>  <COMPND>  (143) 
    8629 

>  <AUTHOR>  (143) 
    GENERATED BY OPEN BABEL 3.1.1

>  <MASTER>  (143) 
        0    0    0    0    0    0    0    0   58    0   58    0

>  <minimizedAffinity>  (143) 
-7.81152

>  <CNNscore>  (143) 
0.6484305859

>  <CNNaffinity>  (143) 
4.5027799606

>  <CNN_VS>  (143) 
2.9197402000

>  <CNNaffinity_variance>  (143) 
0.6591731310

$$$$
144
     RDKit          3D

 43 45  0  0  0  0  0  0  0  0999 V2000
   20.5598   73.6714   -7.2614 P   0  0  2  0  0  0  0  0  0  0  0  0
   19.9364   75.0043   -7.9338 O   0  0  0  0  0  0  0  0  0  0  0  0
   22.0434   73.7076   -7.0403 O   0  0  0  0  0  0  0  0  0  0  0  0
   20.0187   72.4719   -8.2028 O   0  0  0  0  0  0  0  0  0  0  0  0
   19.6978   71.2308   -7.5991 C   0  0  0  0  0  0  0  0  0  0  0  0
   17.9478   69.5888   -7.7226 O   0  0  0  0  0  0  0  0  0  0  0  0
   17.4301   70.6217  -10.4896 O   0  0  0  0  0  0  0  0  0  0  0  0
   15.4611   71.8179   -9.0305 O   0  0  0  0  0  0  0  0  0  0  0  0
   17.8265   71.3354   -9.3196 C   0  0  1  0  0  0  0  0  0  0  0  0
   16.6585   71.4706   -8.3652 C   0  0  2  0  0  0  0  0  0  0  0  0
   18.7814   70.4488   -8.5301 C   0  0  1  0  0  0  0  0  0  0  0  0
   16.6001   70.0870   -7.7406 C   0  0  2  0  0  0  0  0  0  0  0  0
   16.8200   71.1681  -11.0103 H   0  0  0  0  0  0  0  0  0  0  0  0
   15.5481   72.7060   -9.4106 H   0  0  0  0  0  0  0  0  0  0  0  0
   13.8732   69.8174   -7.0556 O   0  0  0  0  0  0  0  0  0  0  0  0
   14.7770   70.2054   -2.5530 O   0  0  0  0  0  0  0  0  0  0  0  0
   16.0948   70.1134   -6.3970 N   0  0  0  0  0  0  0  0  0  0  0  0
   14.3255   70.0107   -4.8142 N   0  0  0  0  0  0  0  0  0  0  0  0
   14.7076   69.9703   -6.1612 C   0  0  0  0  0  0  0  0  0  0  0  0
   16.9713   70.2796   -5.3302 C   0  0  0  0  0  0  0  0  0  0  0  0
   16.5907   70.3172   -4.0515 C   0  0  0  0  0  0  0  0  0  0  0  0
   15.1586   70.1749   -3.7189 C   0  0  0  0  0  0  0  0  0  0  0  0
   13.3638   69.9133   -4.6258 H   0  0  0  0  0  0  0  0  0  0  0  0
   19.6829   73.4998   -5.9143 O   0  0  0  0  0  0  0  0  0  0  0  0
   19.4224   74.5118   -4.6811 P   0  0  2  0  0  0  0  0  0  0  0  0
   17.8541   74.2948   -4.3479 O   0  0  0  0  0  0  0  0  0  0  0  0
   19.8043   75.9362   -4.9627 O   0  0  0  0  0  0  0  0  0  0  0  0
   20.2002   73.8449   -3.4340 O   0  0  0  0  0  0  0  0  0  0  0  0
   22.5327   74.0390   -3.0622 O   0  0  0  0  0  0  0  0  0  0  0  0
   21.8637   70.4236   -1.1828 O   0  0  0  0  0  0  0  0  0  0  0  0
   22.3994   72.7636    0.3938 O   0  0  0  0  0  0  0  0  0  0  0  0
   20.4611   71.0579   -3.6342 O   0  0  0  0  0  0  0  0  0  0  0  0
   21.5451   71.7542   -1.5992 C   0  0  1  0  0  0  0  0  0  0  0  0
   22.5942   72.7032   -1.0164 C   0  0  1  0  0  0  0  0  0  0  0  0
   21.5539   71.8151   -3.1255 C   0  0  2  0  0  0  0  0  0  0  0  0
   22.4772   74.1039   -1.6324 C   0  0  1  0  0  0  0  0  0  0  0  0
   21.4827   73.2562   -3.6337 C   0  0  1  0  0  0  0  0  0  0  0  0
   21.8593   70.3780   -0.2146 H   0  0  0  0  0  0  0  0  0  0  0  0
   22.4753   71.8727    0.7704 H   0  0  0  0  0  0  0  0  0  0  0  0
   20.5178   70.1476   -3.3056 H   0  0  0  0  0  0  0  0  0  0  0  0
   23.3192   75.4933    0.1197 O   0  0  0  0  0  0  0  0  0  0  0  0
   23.6113   75.0228   -1.1832 C   0  0  0  0  0  0  0  0  0  0  0  0
   24.0326   76.0791    0.4187 H   0  0  0  0  0  0  0  0  0  0  0  0
 25 28  1  0
 25 24  1  0
 25 26  1  1
 25 27  2  0
  1  4  1  0
  1 24  1  0
  1  2  1  6
  1  3  2  0
  6 11  1  0
  6 12  1  0
 29 36  1  0
 29 37  1  0
  9  7  1  6
  7 13  1  0
 10  8  1  6
  8 14  1  0
 37 28  1  1
  4  5  1  0
 33 30  1  6
 30 38  1  0
 34 31  1  1
 31 39  1  0
 35 32  1  6
 32 40  1  0
 41 42  1  0
 41 43  1  0
 15 19  2  0
 16 22  2  0
 12 17  1  1
 17 19  1  0
 17 20  1  0
 18 19  1  0
 18 22  1  0
 18 23  1  0
  9 10  1  0
  9 11  1  0
 10 12  1  0
 11  5  1  1
 33 34  1  0
 33 35  1  0
 34 36  1  0
 35 37  1  0
 36 42  1  1
 20 21  2  0
 21 22  1  0
M  CHG  2   2  -1  26  -1
M  END
>  <COMPND>  (144) 
    8629 

>  <AUTHOR>  (144) 
    GENERATED BY OPEN BABEL 3.1.1

>  <MASTER>  (144) 
        0    0    0    0    0    0    0    0   58    0   58    0

>  <minimizedAffinity>  (144) 
-7.09837

>  <CNNscore>  (144) 
0.5545002222

>  <CNNaffinity>  (144) 
4.4201097488

>  <CNN_VS>  (144) 
2.4509518147

>  <CNNaffinity_variance>  (144) 
0.0988064557

$$$$
145
     RDKit          3D

 43 45  0  0  0  0  0  0  0  0999 V2000
   19.5420   70.6423   -3.1856 P   0  0  2  0  0  0  0  0  0  0  0  0
   19.7559   71.4121   -4.5924 O   0  0  0  0  0  0  0  0  0  0  0  0
   19.9946   69.2118   -3.1708 O   0  0  0  0  0  0  0  0  0  0  0  0
   17.9803   70.8887   -2.8415 O   0  0  0  0  0  0  0  0  0  0  0  0
   17.2560   71.8250   -3.6203 C   0  0  0  0  0  0  0  0  0  0  0  0
   15.5255   71.4262   -5.2390 O   0  0  0  0  0  0  0  0  0  0  0  0
   14.3133   69.5795   -3.2113 O   0  0  0  0  0  0  0  0  0  0  0  0
   15.5561   67.8541   -4.9187 O   0  0  0  0  0  0  0  0  0  0  0  0
   15.6888   69.8243   -3.5003 C   0  0  1  0  0  0  0  0  0  0  0  0
   16.0778   69.1625   -4.8058 C   0  0  2  0  0  0  0  0  0  0  0  0
   15.8420   71.3028   -3.8351 C   0  0  1  0  0  0  0  0  0  0  0  0
   15.4890   70.1171   -5.8306 C   0  0  2  0  0  0  0  0  0  0  0  0
   14.1907   68.6416   -2.9942 H   0  0  0  0  0  0  0  0  0  0  0  0
   15.9614   67.2851   -4.2458 H   0  0  0  0  0  0  0  0  0  0  0  0
   14.3653   70.5588   -8.3840 O   0  0  0  0  0  0  0  0  0  0  0  0
   18.4637   70.1720  -10.4564 O   0  0  0  0  0  0  0  0  0  0  0  0
   16.2393   70.1375   -7.0545 N   0  0  0  0  0  0  0  0  0  0  0  0
   16.4069   70.3660   -9.4138 N   0  0  0  0  0  0  0  0  0  0  0  0
   15.5789   70.3669   -8.2840 C   0  0  0  0  0  0  0  0  0  0  0  0
   17.6144   69.9319   -7.0279 C   0  0  0  0  0  0  0  0  0  0  0  0
   18.3896   69.9329   -8.1144 C   0  0  0  0  0  0  0  0  0  0  0  0
   17.7779   70.1652   -9.4387 C   0  0  0  0  0  0  0  0  0  0  0  0
   15.9687   70.5234  -10.2815 H   0  0  0  0  0  0  0  0  0  0  0  0
   20.3025   71.5995   -2.1281 O   0  0  0  0  0  0  0  0  0  0  0  0
   21.8436   72.0807   -2.0494 P   0  0  2  0  0  0  0  0  0  0  0  0
   22.6308   70.9434   -2.8887 O   0  0  0  0  0  0  0  0  0  0  0  0
   22.3542   72.2840   -0.6523 O   0  0  0  0  0  0  0  0  0  0  0  0
   21.9094   73.3953   -2.9834 O   0  0  0  0  0  0  0  0  0  0  0  0
   22.6111   73.2998   -5.2451 O   0  0  0  0  0  0  0  0  0  0  0  0
   23.4985   77.2524   -4.4454 O   0  0  0  0  0  0  0  0  0  0  0  0
   21.2587   76.6140   -6.1258 O   0  0  0  0  0  0  0  0  0  0  0  0
   23.9556   75.2323   -2.4231 O   0  0  0  0  0  0  0  0  0  0  0  0
   22.7477   76.0394   -4.3443 C   0  0  1  0  0  0  0  0  0  0  0  0
   22.2503   75.6654   -5.7420 C   0  0  1  0  0  0  0  0  0  0  0  0
   23.6477   74.9407   -3.7821 C   0  0  2  0  0  0  0  0  0  0  0  0
   21.6675   74.2459   -5.7611 C   0  0  1  0  0  0  0  0  0  0  0  0
   22.9934   73.5624   -3.8935 C   0  0  1  0  0  0  0  0  0  0  0  0
   22.9327   77.9543   -4.8013 H   0  0  0  0  0  0  0  0  0  0  0  0
   21.6394   77.5062   -6.1091 H   0  0  0  0  0  0  0  0  0  0  0  0
   24.3695   76.1071   -2.3660 H   0  0  0  0  0  0  0  0  0  0  0  0
   22.4744   73.2702   -7.7874 O   0  0  0  0  0  0  0  0  0  0  0  0
   21.3101   73.7934   -7.1752 C   0  0  0  0  0  0  0  0  0  0  0  0
   22.2619   72.9780   -8.6881 H   0  0  0  0  0  0  0  0  0  0  0  0
 25 28  1  0
 25 24  1  0
 25 26  1  6
 25 27  2  0
  1  4  1  0
  1 24  1  0
  1  2  1  6
  1  3  2  0
  6 11  1  0
  6 12  1  0
 29 36  1  0
 29 37  1  0
  9  7  1  6
  7 13  1  0
 10  8  1  1
  8 14  1  0
 37 28  1  1
  4  5  1  0
 33 30  1  6
 30 38  1  0
 34 31  1  1
 31 39  1  0
 35 32  1  1
 32 40  1  0
 41 42  1  0
 41 43  1  0
 15 19  2  0
 16 22  2  0
 12 17  1  6
 17 19  1  0
 17 20  1  0
 18 19  1  0
 18 22  1  0
 18 23  1  0
  9 10  1  0
  9 11  1  0
 10 12  1  0
 11  5  1  6
 33 34  1  0
 33 35  1  0
 34 36  1  0
 35 37  1  0
 36 42  1  6
 20 21  2  0
 21 22  1  0
M  CHG  2   2  -1  26  -1
M  END
>  <COMPND>  (145) 
    8629 

>  <AUTHOR>  (145) 
    GENERATED BY OPEN BABEL 3.1.1

>  <MASTER>  (145) 
        0    0    0    0    0    0    0    0   58    0   58    0

>  <minimizedAffinity>  (145) 
-7.85586

>  <CNNscore>  (145) 
0.5409908295

>  <CNNaffinity>  (145) 
4.2891526222

>  <CNN_VS>  (145) 
2.3203921318

>  <CNNaffinity_variance>  (145) 
0.4707534313

$$$$
146
     RDKit          3D

 43 45  0  0  0  0  0  0  0  0999 V2000
   18.6887   73.7217   -8.0240 P   0  0  2  0  0  0  0  0  0  0  0  0
   18.6410   72.8588   -6.6563 O   0  0  0  0  0  0  0  0  0  0  0  0
   17.4370   74.4892   -8.3331 O   0  0  0  0  0  0  0  0  0  0  0  0
   19.1499   72.6491   -9.1441 O   0  0  0  0  0  0  0  0  0  0  0  0
   19.7872   71.4576   -8.7174 C   0  0  0  0  0  0  0  0  0  0  0  0
   18.8370   69.3269   -8.1420 O   0  0  0  0  0  0  0  0  0  0  0  0
   17.1559   69.6211  -10.6074 O   0  0  0  0  0  0  0  0  0  0  0  0
   15.4239   70.3195   -8.6202 O   0  0  0  0  0  0  0  0  0  0  0  0
   17.5884   70.6205   -9.6858 C   0  0  1  0  0  0  0  0  0  0  0  0
   16.8044   70.5193   -8.3941 C   0  0  2  0  0  0  0  0  0  0  0  0
   18.9977   70.2615   -9.2315 C   0  0  1  0  0  0  0  0  0  0  0  0
   17.4642   69.3298   -7.7175 C   0  0  2  0  0  0  0  0  0  0  0  0
   16.2582   69.8290  -10.9119 H   0  0  0  0  0  0  0  0  0  0  0  0
   15.0501   71.1033   -9.0522 H   0  0  0  0  0  0  0  0  0  0  0  0
   15.1655   68.8183   -6.1578 O   0  0  0  0  0  0  0  0  0  0  0  0
   17.4079   69.7084   -2.2309 O   0  0  0  0  0  0  0  0  0  0  0  0
   17.4192   69.4200   -6.2853 N   0  0  0  0  0  0  0  0  0  0  0  0
   16.2840   69.2617   -4.2037 N   0  0  0  0  0  0  0  0  0  0  0  0
   16.2144   69.1437   -5.5977 C   0  0  0  0  0  0  0  0  0  0  0  0
   18.5611   69.7787   -5.5773 C   0  0  0  0  0  0  0  0  0  0  0  0
   18.6105   69.8881   -4.2481 C   0  0  0  0  0  0  0  0  0  0  0  0
   17.3946   69.6163   -3.4545 C   0  0  0  0  0  0  0  0  0  0  0  0
   15.4566   69.0744   -3.7037 H   0  0  0  0  0  0  0  0  0  0  0  0
   20.0080   74.6357   -7.8312 O   0  0  0  0  0  0  0  0  0  0  0  0
   21.3352   74.4088   -6.9368 P   0  0  2  0  0  0  0  0  0  0  0  0
   21.8257   75.9158   -6.6118 O   0  0  0  0  0  0  0  0  0  0  0  0
   22.3764   73.5457   -7.5887 O   0  0  0  0  0  0  0  0  0  0  0  0
   20.7866   73.8457   -5.5273 O   0  0  0  0  0  0  0  0  0  0  0  0
   20.2777   74.5406   -3.3194 O   0  0  0  0  0  0  0  0  0  0  0  0
   23.0441   71.5969   -2.4635 O   0  0  0  0  0  0  0  0  0  0  0  0
   20.2629   71.1301   -1.9205 O   0  0  0  0  0  0  0  0  0  0  0  0
   23.4332   73.3217   -4.7555 O   0  0  0  0  0  0  0  0  0  0  0  0
   21.9769   72.2099   -3.1921 C   0  0  1  0  0  0  0  0  0  0  0  0
   20.7985   72.4118   -2.2374 C   0  0  1  0  0  0  0  0  0  0  0  0
   22.4561   73.5504   -3.7459 C   0  0  2  0  0  0  0  0  0  0  0  0
   19.7191   73.3005   -2.8700 C   0  0  1  0  0  0  0  0  0  0  0  0
   21.2972   74.3764   -4.3071 C   0  0  1  0  0  0  0  0  0  0  0  0
   22.7466   70.7450   -2.1096 H   0  0  0  0  0  0  0  0  0  0  0  0
   20.9546   70.5787   -1.5222 H   0  0  0  0  0  0  0  0  0  0  0  0
   24.1616   72.7982   -4.3877 H   0  0  0  0  0  0  0  0  0  0  0  0
   17.5554   72.7128   -2.0443 O   0  0  0  0  0  0  0  0  0  0  0  0
   18.6087   73.6444   -1.8797 C   0  0  0  0  0  0  0  0  0  0  0  0
   16.8415   72.9192   -1.4201 H   0  0  0  0  0  0  0  0  0  0  0  0
 25 28  1  0
 25 24  1  0
 25 26  1  1
 25 27  2  0
  1  4  1  0
  1 24  1  0
  1  2  1  1
  1  3  2  0
  6 11  1  0
  6 12  1  0
 29 36  1  0
 29 37  1  0
  9  7  1  6
  7 13  1  0
 10  8  1  6
  8 14  1  0
 37 28  1  6
  4  5  1  0
 33 30  1  1
 30 38  1  0
 34 31  1  6
 31 39  1  0
 35 32  1  6
 32 40  1  0
 41 42  1  0
 41 43  1  0
 15 19  2  0
 16 22  2  0
 12 17  1  1
 17 19  1  0
 17 20  1  0
 18 19  1  0
 18 22  1  0
 18 23  1  0
  9 10  1  0
  9 11  1  0
 10 12  1  0
 11  5  1  1
 33 34  1  0
 33 35  1  0
 34 36  1  0
 35 37  1  0
 36 42  1  1
 20 21  2  0
 21 22  1  0
M  CHG  2   2  -1  26  -1
M  END
>  <COMPND>  (146) 
    8629 

>  <AUTHOR>  (146) 
    GENERATED BY OPEN BABEL 3.1.1

>  <MASTER>  (146) 
        0    0    0    0    0    0    0    0   58    0   58    0

>  <minimizedAffinity>  (146) 
-7.95502

>  <CNNscore>  (146) 
0.5266728401

>  <CNNaffinity>  (146) 
4.1025424004

>  <CNN_VS>  (146) 
2.1606976986

>  <CNNaffinity_variance>  (146) 
1.0828411579

$$$$
147
     RDKit          3D

 43 45  0  0  0  0  0  0  0  0999 V2000
   19.3423   73.2057   -7.9853 P   0  0  2  0  0  0  0  0  0  0  0  0
   18.4012   74.2751   -8.7521 O   0  0  0  0  0  0  0  0  0  0  0  0
   20.4038   72.5715   -8.8353 O   0  0  0  0  0  0  0  0  0  0  0  0
   18.2910   72.1863   -7.2972 O   0  0  0  0  0  0  0  0  0  0  0  0
   18.7358   70.8850   -6.9557 C   0  0  0  0  0  0  0  0  0  0  0  0
   17.1628   69.0746   -6.8082 O   0  0  0  0  0  0  0  0  0  0  0  0
   16.6260   69.5512   -9.7194 O   0  0  0  0  0  0  0  0  0  0  0  0
   14.5056   70.7730   -8.5163 O   0  0  0  0  0  0  0  0  0  0  0  0
   16.9147   70.4947   -8.6890 C   0  0  1  0  0  0  0  0  0  0  0  0
   15.7115   70.6724   -7.7866 C   0  0  2  0  0  0  0  0  0  0  0  0
   17.9297   69.8625   -7.7448 C   0  0  1  0  0  0  0  0  0  0  0  0
   15.7732   69.4200   -6.9289 C   0  0  2  0  0  0  0  0  0  0  0  0
   15.9800   69.9327  -10.3351 H   0  0  0  0  0  0  0  0  0  0  0  0
   14.5146   71.5856   -9.0458 H   0  0  0  0  0  0  0  0  0  0  0  0
   13.8415   67.7507   -5.7207 O   0  0  0  0  0  0  0  0  0  0  0  0
   13.7550   70.3138   -1.8913 O   0  0  0  0  0  0  0  0  0  0  0  0
   15.2286   69.6275   -5.6167 N   0  0  0  0  0  0  0  0  0  0  0  0
   13.8001   69.0282   -3.8148 N   0  0  0  0  0  0  0  0  0  0  0  0
   14.2625   68.7311   -5.1032 C   0  0  0  0  0  0  0  0  0  0  0  0
   15.6528   70.7097   -4.8535 C   0  0  0  0  0  0  0  0  0  0  0  0
   15.2011   70.9798   -3.6270 C   0  0  0  0  0  0  0  0  0  0  0  0
   14.1901   70.0922   -3.0171 C   0  0  0  0  0  0  0  0  0  0  0  0
   13.1263   68.4176   -3.4367 H   0  0  0  0  0  0  0  0  0  0  0  0
   19.9040   74.0519   -6.7277 O   0  0  0  0  0  0  0  0  0  0  0  0
   21.3956   74.1853   -6.1192 P   0  0  2  0  0  0  0  0  0  0  0  0
   21.4109   75.6794   -5.4987 O   0  0  0  0  0  0  0  0  0  0  0  0
   22.4908   73.9149   -7.1098 O   0  0  0  0  0  0  0  0  0  0  0  0
   21.4009   73.2098   -4.8333 O   0  0  0  0  0  0  0  0  0  0  0  0
   19.6376   71.8783   -3.9765 O   0  0  0  0  0  0  0  0  0  0  0  0
   21.4832   72.8940   -0.4250 O   0  0  0  0  0  0  0  0  0  0  0  0
   21.7197   70.2141   -1.4301 O   0  0  0  0  0  0  0  0  0  0  0  0
   21.2784   74.8436   -2.5549 O   0  0  0  0  0  0  0  0  0  0  0  0
   21.4258   72.5566   -1.8136 C   0  0  1  0  0  0  0  0  0  0  0  0
   20.7953   71.1688   -1.9443 C   0  0  1  0  0  0  0  0  0  0  0  0
   20.5850   73.6003   -2.5465 C   0  0  2  0  0  0  0  0  0  0  0  0
   20.4558   70.8500   -3.4066 C   0  0  1  0  0  0  0  0  0  0  0  0
   20.2629   73.1632   -3.9766 C   0  0  1  0  0  0  0  0  0  0  0  0
   22.0160   72.2355    0.0461 H   0  0  0  0  0  0  0  0  0  0  0  0
   21.9261   70.4271   -0.5064 H   0  0  0  0  0  0  0  0  0  0  0  0
   21.4762   75.1095   -1.6439 H   0  0  0  0  0  0  0  0  0  0  0  0
   18.7328   69.4680   -2.4956 O   0  0  0  0  0  0  0  0  0  0  0  0
   19.6838   69.5394   -3.5418 C   0  0  0  0  0  0  0  0  0  0  0  0
   18.2337   68.6390   -2.5691 H   0  0  0  0  0  0  0  0  0  0  0  0
 25 28  1  0
 25 24  1  0
 25 26  1  1
 25 27  2  0
  1  4  1  0
  1 24  1  0
  1  2  1  6
  1  3  2  0
  6 11  1  0
  6 12  1  0
 29 36  1  0
 29 37  1  0
  9  7  1  6
  7 13  1  0
 10  8  1  6
  8 14  1  0
 37 28  1  6
  4  5  1  0
 33 30  1  1
 30 38  1  0
 34 31  1  6
 31 39  1  0
 35 32  1  6
 32 40  1  0
 41 42  1  0
 41 43  1  0
 15 19  2  0
 16 22  2  0
 12 17  1  1
 17 19  1  0
 17 20  1  0
 18 19  1  0
 18 22  1  0
 18 23  1  0
  9 10  1  0
  9 11  1  0
 10 12  1  0
 11  5  1  1
 33 34  1  0
 33 35  1  0
 34 36  1  0
 35 37  1  0
 36 42  1  1
 20 21  2  0
 21 22  1  0
M  CHG  2   2  -1  26  -1
M  END
>  <COMPND>  (147) 
    8629 

>  <AUTHOR>  (147) 
    GENERATED BY OPEN BABEL 3.1.1

>  <MASTER>  (147) 
        0    0    0    0    0    0    0    0   58    0   58    0

>  <minimizedAffinity>  (147) 
-7.97024

>  <CNNscore>  (147) 
0.5093962550

>  <CNNaffinity>  (147) 
4.2820639610

>  <CNN_VS>  (147) 
2.1812672615

>  <CNNaffinity_variance>  (147) 
0.5012992620

$$$$
148
     RDKit          3D

 43 45  0  0  0  0  0  0  0  0999 V2000
   16.9474   71.9140   -3.1077 P   0  0  2  0  0  0  0  0  0  0  0  0
   15.5757   71.4760   -2.3701 O   0  0  0  0  0  0  0  0  0  0  0  0
   17.6341   73.1077   -2.5119 O   0  0  0  0  0  0  0  0  0  0  0  0
   16.5253   72.0502   -4.6637 O   0  0  0  0  0  0  0  0  0  0  0  0
   15.9131   70.9407   -5.2978 C   0  0  0  0  0  0  0  0  0  0  0  0
   16.2165   72.4276   -7.1608 O   0  0  0  0  0  0  0  0  0  0  0  0
   14.3968   70.5925   -8.6813 O   0  0  0  0  0  0  0  0  0  0  0  0
   16.8661   69.8509   -9.5694 O   0  0  0  0  0  0  0  0  0  0  0  0
   15.3777   70.2766   -7.6947 C   0  0  1  0  0  0  0  0  0  0  0  0
   16.7698   70.4107   -8.2756 C   0  0  2  0  0  0  0  0  0  0  0  0
   15.3623   71.3824   -6.6467 C   0  0  1  0  0  0  0  0  0  0  0  0
   16.9681   71.9170   -8.2740 C   0  0  2  0  0  0  0  0  0  0  0  0
   14.3877   69.9001   -9.3613 H   0  0  0  0  0  0  0  0  0  0  0  0
   16.7330   68.8916   -9.5176 H   0  0  0  0  0  0  0  0  0  0  0  0
   18.9890   71.3984  -10.1779 O   0  0  0  0  0  0  0  0  0  0  0  0
   22.2202   73.3845   -7.5594 O   0  0  0  0  0  0  0  0  0  0  0  0
   18.3460   72.2879   -8.1157 N   0  0  0  0  0  0  0  0  0  0  0  0
   20.5962   72.3879   -8.8726 N   0  0  0  0  0  0  0  0  0  0  0  0
   19.2814   71.9800   -9.1310 C   0  0  0  0  0  0  0  0  0  0  0  0
   18.7576   72.9497   -6.9640 C   0  0  0  0  0  0  0  0  0  0  0  0
   20.0156   73.3307   -6.7323 C   0  0  0  0  0  0  0  0  0  0  0  0
   21.0548   73.0471   -7.7430 C   0  0  0  0  0  0  0  0  0  0  0  0
   21.2653   72.1837   -9.5658 H   0  0  0  0  0  0  0  0  0  0  0  0
   17.8218   70.5546   -3.0860 O   0  0  0  0  0  0  0  0  0  0  0  0
   19.3383   70.2602   -3.5619 P   0  0  2  0  0  0  0  0  0  0  0  0
   19.2324   70.2866   -5.1761 O   0  0  0  0  0  0  0  0  0  0  0  0
   19.9253   68.9976   -3.0005 O   0  0  0  0  0  0  0  0  0  0  0  0
   20.1525   71.6018   -3.1849 O   0  0  0  0  0  0  0  0  0  0  0  0
   22.0205   72.7782   -4.0470 O   0  0  0  0  0  0  0  0  0  0  0  0
   23.0444   72.7547   -0.0468 O   0  0  0  0  0  0  0  0  0  0  0  0
   22.1655   75.1994   -1.2711 O   0  0  0  0  0  0  0  0  0  0  0  0
   21.7893   70.4299   -1.2297 O   0  0  0  0  0  0  0  0  0  0  0  0
   22.1520   72.8101   -1.1630 C   0  0  1  0  0  0  0  0  0  0  0  0
   22.5168   74.0319   -2.0085 C   0  0  1  0  0  0  0  0  0  0  0  0
   22.2956   71.5280   -1.9809 C   0  0  2  0  0  0  0  0  0  0  0  0
   21.7845   74.0111   -3.3570 C   0  0  1  0  0  0  0  0  0  0  0  0
   21.5706   71.6307   -3.3241 C   0  0  1  0  0  0  0  0  0  0  0  0
   22.9579   73.5657    0.4770 H   0  0  0  0  0  0  0  0  0  0  0  0
   22.6343   75.2001   -0.4218 H   0  0  0  0  0  0  0  0  0  0  0  0
   22.2564   70.3755   -0.3819 H   0  0  0  0  0  0  0  0  0  0  0  0
   23.2355   74.6171   -5.1559 O   0  0  0  0  0  0  0  0  0  0  0  0
   22.2520   75.1350   -4.2792 C   0  0  0  0  0  0  0  0  0  0  0  0
   23.5422   75.3213   -5.7490 H   0  0  0  0  0  0  0  0  0  0  0  0
 25 28  1  0
 25 24  1  0
 25 26  1  6
 25 27  2  0
  1  4  1  0
  1 24  1  0
  1  2  1  1
  1  3  2  0
  6 11  1  0
  6 12  1  0
 29 36  1  0
 29 37  1  0
  9  7  1  6
  7 13  1  0
 10  8  1  6
  8 14  1  0
 37 28  1  1
  4  5  1  0
 33 30  1  1
 30 38  1  0
 34 31  1  1
 31 39  1  0
 35 32  1  1
 32 40  1  0
 41 42  1  0
 41 43  1  0
 15 19  2  0
 16 22  2  0
 12 17  1  1
 17 19  1  0
 17 20  1  0
 18 19  1  0
 18 22  1  0
 18 23  1  0
  9 10  1  0
  9 11  1  0
 10 12  1  0
 11  5  1  1
 33 34  1  0
 33 35  1  0
 34 36  1  0
 35 37  1  0
 36 42  1  6
 20 21  2  0
 21 22  1  0
M  CHG  2   2  -1  26  -1
M  END
>  <COMPND>  (148) 
    8629 

>  <AUTHOR>  (148) 
    GENERATED BY OPEN BABEL 3.1.1

>  <MASTER>  (148) 
        0    0    0    0    0    0    0    0   58    0   58    0

>  <minimizedAffinity>  (148) 
-8.17532

>  <CNNscore>  (148) 
0.4799845815

>  <CNNaffinity>  (148) 
4.2300071716

>  <CNN_VS>  (148) 
2.0303382874

>  <CNNaffinity_variance>  (148) 
0.6029995680

$$$$
149
     RDKit          3D

 43 45  0  0  0  0  0  0  0  0999 V2000
   16.2125   70.5278   -3.4042 P   0  0  2  0  0  0  0  0  0  0  0  0
   16.4961   69.1211   -4.1514 O   0  0  0  0  0  0  0  0  0  0  0  0
   15.1823   70.4704   -2.3148 O   0  0  0  0  0  0  0  0  0  0  0  0
   15.8984   71.5542   -4.6149 O   0  0  0  0  0  0  0  0  0  0  0  0
   14.6157   72.1531   -4.6779 C   0  0  0  0  0  0  0  0  0  0  0  0
   15.9483   73.3015   -6.3147 O   0  0  0  0  0  0  0  0  0  0  0  0
   13.3760   74.4780   -7.3098 O   0  0  0  0  0  0  0  0  0  0  0  0
   13.8553   72.4875   -9.1111 O   0  0  0  0  0  0  0  0  0  0  0  0
   13.6301   73.1741   -6.7896 C   0  0  1  0  0  0  0  0  0  0  0  0
   14.3790   72.3389   -7.8071 C   0  0  2  0  0  0  0  0  0  0  0  0
   14.6555   73.3069   -5.6706 C   0  0  1  0  0  0  0  0  0  0  0  0
   15.7929   72.8799   -7.6796 C   0  0  2  0  0  0  0  0  0  0  0  0
   12.7236   74.4188   -8.0259 H   0  0  0  0  0  0  0  0  0  0  0  0
   12.9547   72.1286   -9.1409 H   0  0  0  0  0  0  0  0  0  0  0  0
   18.3400   73.4492   -8.7595 O   0  0  0  0  0  0  0  0  0  0  0  0
   19.5274   68.9960   -8.7834 O   0  0  0  0  0  0  0  0  0  0  0  0
   16.7876   71.8884   -7.9776 N   0  0  0  0  0  0  0  0  0  0  0  0
   18.9292   71.2314   -8.7704 N   0  0  0  0  0  0  0  0  0  0  0  0
   18.0345   72.2794   -8.5188 C   0  0  0  0  0  0  0  0  0  0  0  0
   16.5225   70.5454   -7.7329 C   0  0  0  0  0  0  0  0  0  0  0  0
   17.3860   69.5581   -7.9795 C   0  0  0  0  0  0  0  0  0  0  0  0
   18.7116   69.8813   -8.5454 C   0  0  0  0  0  0  0  0  0  0  0  0
   19.8041   71.4799   -9.1479 H   0  0  0  0  0  0  0  0  0  0  0  0
   17.6845   70.9827   -2.9149 O   0  0  0  0  0  0  0  0  0  0  0  0
   19.1534   70.5984   -3.4695 P   0  0  2  0  0  0  0  0  0  0  0  0
   19.0137   70.8099   -5.0674 O   0  0  0  0  0  0  0  0  0  0  0  0
   19.6260   69.2322   -3.0647 O   0  0  0  0  0  0  0  0  0  0  0  0
   20.1040   71.8073   -2.9799 O   0  0  0  0  0  0  0  0  0  0  0  0
   21.9810   72.8630   -3.9695 O   0  0  0  0  0  0  0  0  0  0  0  0
   23.2774   72.7502   -0.0506 O   0  0  0  0  0  0  0  0  0  0  0  0
   22.4788   75.2541   -1.2084 O   0  0  0  0  0  0  0  0  0  0  0  0
   21.7921   70.5195   -1.1449 O   0  0  0  0  0  0  0  0  0  0  0  0
   22.3150   72.8703   -1.1017 C   0  0  1  0  0  0  0  0  0  0  0  0
   22.6999   74.0700   -1.9696 C   0  0  1  0  0  0  0  0  0  0  0  0
   22.3162   71.5860   -1.9287 C   0  0  2  0  0  0  0  0  0  0  0  0
   21.8756   74.1049   -3.2636 C   0  0  1  0  0  0  0  0  0  0  0  0
   21.5078   71.7436   -3.2178 C   0  0  1  0  0  0  0  0  0  0  0  0
   23.2814   73.5622    0.4786 H   0  0  0  0  0  0  0  0  0  0  0  0
   23.0046   75.2193   -0.3939 H   0  0  0  0  0  0  0  0  0  0  0  0
   22.3125   70.4298   -0.3319 H   0  0  0  0  0  0  0  0  0  0  0  0
   23.0323   74.5920   -5.2968 O   0  0  0  0  0  0  0  0  0  0  0  0
   22.3510   75.2006   -4.2152 C   0  0  0  0  0  0  0  0  0  0  0  0
   23.3403   75.2774   -5.9108 H   0  0  0  0  0  0  0  0  0  0  0  0
 25 28  1  0
 25 24  1  0
 25 26  1  6
 25 27  2  0
  1  4  1  0
  1 24  1  0
  1  2  1  6
  1  3  2  0
  6 11  1  0
  6 12  1  0
 29 36  1  0
 29 37  1  0
  9  7  1  6
  7 13  1  0
 10  8  1  6
  8 14  1  0
 37 28  1  1
  4  5  1  0
 33 30  1  1
 30 38  1  0
 34 31  1  1
 31 39  1  0
 35 32  1  1
 32 40  1  0
 41 42  1  0
 41 43  1  0
 15 19  2  0
 16 22  2  0
 12 17  1  1
 17 19  1  0
 17 20  1  0
 18 19  1  0
 18 22  1  0
 18 23  1  0
  9 10  1  0
  9 11  1  0
 10 12  1  0
 11  5  1  1
 33 34  1  0
 33 35  1  0
 34 36  1  0
 35 37  1  0
 36 42  1  6
 20 21  2  0
 21 22  1  0
M  CHG  2   2  -1  26  -1
M  END
>  <COMPND>  (149) 
    8629 

>  <AUTHOR>  (149) 
    GENERATED BY OPEN BABEL 3.1.1

>  <MASTER>  (149) 
        0    0    0    0    0    0    0    0   58    0   58    0

>  <minimizedAffinity>  (149) 
-7.41242

>  <CNNscore>  (149) 
0.4700380862

>  <CNNaffinity>  (149) 
4.4217696190

>  <CNN_VS>  (149) 
2.0784001350

>  <CNNaffinity_variance>  (149) 
0.1776599884

$$$$
150
     RDKit          3D

 43 45  0  0  0  0  0  0  0  0999 V2000
   21.3141   71.3855   -2.1363 P   0  0  2  0  0  0  0  0  0  0  0  0
   22.3147   71.2523   -3.4007 O   0  0  0  0  0  0  0  0  0  0  0  0
   21.9783   71.3177   -0.7926 O   0  0  0  0  0  0  0  0  0  0  0  0
   20.1815   70.2647   -2.4175 O   0  0  0  0  0  0  0  0  0  0  0  0
   19.5001   70.2889   -3.6597 C   0  0  0  0  0  0  0  0  0  0  0  0
   17.6542   71.4575   -4.6600 O   0  0  0  0  0  0  0  0  0  0  0  0
   15.9741   70.3021   -2.4616 O   0  0  0  0  0  0  0  0  0  0  0  0
   15.3868   68.6800   -4.5735 O   0  0  0  0  0  0  0  0  0  0  0  0
   17.0717   69.7174   -3.1606 C   0  0  1  0  0  0  0  0  0  0  0  0
   16.6499   69.3132   -4.5578 C   0  0  2  0  0  0  0  0  0  0  0  0
   18.0888   70.8166   -3.4407 C   0  0  1  0  0  0  0  0  0  0  0  0
   16.6438   70.6480   -5.2835 C   0  0  2  0  0  0  0  0  0  0  0  0
   15.3113   69.6191   -2.2712 H   0  0  0  0  0  0  0  0  0  0  0  0
   15.4424   67.8355   -4.0997 H   0  0  0  0  0  0  0  0  0  0  0  0
   14.7268   70.1468   -7.2965 O   0  0  0  0  0  0  0  0  0  0  0  0
   17.9334   70.1502  -10.6069 O   0  0  0  0  0  0  0  0  0  0  0  0
   16.9500   70.5136   -6.6798 N   0  0  0  0  0  0  0  0  0  0  0  0
   16.3250   70.1491   -8.9432 N   0  0  0  0  0  0  0  0  0  0  0  0
   15.9138   70.2615   -7.6089 C   0  0  0  0  0  0  0  0  0  0  0  0
   18.2653   70.6321   -7.1154 C   0  0  0  0  0  0  0  0  0  0  0  0
   18.6411   70.5209   -8.3912 C   0  0  0  0  0  0  0  0  0  0  0  0
   17.6197   70.2577   -9.4254 C   0  0  0  0  0  0  0  0  0  0  0  0
   15.6203   69.9731   -9.6082 H   0  0  0  0  0  0  0  0  0  0  0  0
   20.5359   72.7708   -2.4330 O   0  0  0  0  0  0  0  0  0  0  0  0
   21.0653   74.2975   -2.4767 P   0  0  2  0  0  0  0  0  0  0  0  0
   22.6735   74.1347   -2.4064 O   0  0  0  0  0  0  0  0  0  0  0  0
   20.4852   75.1808   -1.4103 O   0  0  0  0  0  0  0  0  0  0  0  0
   20.7710   74.7890   -3.9856 O   0  0  0  0  0  0  0  0  0  0  0  0
   19.1289   74.1894   -5.5858 O   0  0  0  0  0  0  0  0  0  0  0  0
   22.4112   74.4569   -8.0770 O   0  0  0  0  0  0  0  0  0  0  0  0
   20.3806   76.4851   -8.1843 O   0  0  0  0  0  0  0  0  0  0  0  0
   22.7015   73.3437   -5.4207 O   0  0  0  0  0  0  0  0  0  0  0  0
   21.5862   74.8170   -6.9657 C   0  0  1  0  0  0  0  0  0  0  0  0
   20.2187   75.2445   -7.5022 C   0  0  1  0  0  0  0  0  0  0  0  0
   21.4466   73.6124   -6.0367 C   0  0  2  0  0  0  0  0  0  0  0  0
   19.1980   75.3891   -6.3654 C   0  0  1  0  0  0  0  0  0  0  0  0
   20.3718   73.8414   -4.9725 C   0  0  1  0  0  0  0  0  0  0  0  0
   22.5043   75.2176   -8.6705 H   0  0  0  0  0  0  0  0  0  0  0  0
   21.0280   76.3802   -8.8992 H   0  0  0  0  0  0  0  0  0  0  0  0
   23.3733   73.2003   -6.1048 H   0  0  0  0  0  0  0  0  0  0  0  0
   17.6762   77.0427   -7.1768 O   0  0  0  0  0  0  0  0  0  0  0  0
   17.7904   75.6607   -6.8916 C   0  0  0  0  0  0  0  0  0  0  0  0
   16.7854   77.2304   -7.5129 H   0  0  0  0  0  0  0  0  0  0  0  0
 25 28  1  0
 25 24  1  0
 25 26  1  1
 25 27  2  0
  1  4  1  0
  1 24  1  0
  1  2  1  6
  1  3  2  0
  6 11  1  0
  6 12  1  0
 29 36  1  0
 29 37  1  0
  9  7  1  1
  7 13  1  0
 10  8  1  1
  8 14  1  0
 37 28  1  1
  4  5  1  0
 33 30  1  6
 30 38  1  0
 34 31  1  1
 31 39  1  0
 35 32  1  1
 32 40  1  0
 41 42  1  0
 41 43  1  0
 15 19  2  0
 16 22  2  0
 12 17  1  6
 17 19  1  0
 17 20  1  0
 18 19  1  0
 18 22  1  0
 18 23  1  0
  9 10  1  0
  9 11  1  0
 10 12  1  0
 11  5  1  6
 33 34  1  0
 33 35  1  0
 34 36  1  0
 35 37  1  0
 36 42  1  6
 20 21  2  0
 21 22  1  0
M  CHG  2   2  -1  26  -1
M  END
>  <COMPND>  (150) 
    8629 

>  <AUTHOR>  (150) 
    GENERATED BY OPEN BABEL 3.1.1

>  <MASTER>  (150) 
        0    0    0    0    0    0    0    0   58    0   58    0

>  <minimizedAffinity>  (150) 
-7.47460

>  <CNNscore>  (150) 
0.4587680697

>  <CNNaffinity>  (150) 
4.1461157799

>  <CNN_VS>  (150) 
1.9021055698

>  <CNNaffinity_variance>  (150) 
0.4961348176

$$$$
151
     RDKit          3D

 43 45  0  0  0  0  0  0  0  0999 V2000
   18.1046   75.2147   -5.4265 P   0  0  2  0  0  0  0  0  0  0  0  0
   17.7753   74.2924   -4.1387 O   0  0  0  0  0  0  0  0  0  0  0  0
   17.5399   76.6038   -5.3722 O   0  0  0  0  0  0  0  0  0  0  0  0
   17.6299   74.3119   -6.6825 O   0  0  0  0  0  0  0  0  0  0  0  0
   16.2694   74.3621   -7.0753 C   0  0  0  0  0  0  0  0  0  0  0  0
   16.9238   72.1267   -7.6657 O   0  0  0  0  0  0  0  0  0  0  0  0
   14.1988   71.8516   -8.8861 O   0  0  0  0  0  0  0  0  0  0  0  0
   13.9160   70.5573   -6.5025 O   0  0  0  0  0  0  0  0  0  0  0  0
   14.5937   72.5559   -7.7099 C   0  0  1  0  0  0  0  0  0  0  0  0
   14.8850   71.5823   -6.5870 C   0  0  2  0  0  0  0  0  0  0  0  0
   15.9663   73.1654   -7.9665 C   0  0  1  0  0  0  0  0  0  0  0  0
   16.2580   71.0585   -6.9724 C   0  0  2  0  0  0  0  0  0  0  0  0
   13.3246   71.4538   -8.7464 H   0  0  0  0  0  0  0  0  0  0  0  0
   13.0603   70.9408   -6.2547 H   0  0  0  0  0  0  0  0  0  0  0  0
   18.6579   69.5744   -7.1000 O   0  0  0  0  0  0  0  0  0  0  0  0
   19.1810   69.6797   -2.5222 O   0  0  0  0  0  0  0  0  0  0  0  0
   17.0422   70.6844   -5.8293 N   0  0  0  0  0  0  0  0  0  0  0  0
   18.9165   69.6282   -4.8205 N   0  0  0  0  0  0  0  0  0  0  0  0
   18.2309   69.9378   -6.0021 C   0  0  0  0  0  0  0  0  0  0  0  0
   16.6307   71.0576   -4.5544 C   0  0  0  0  0  0  0  0  0  0  0  0
   17.2951   70.7533   -3.4377 C   0  0  0  0  0  0  0  0  0  0  0  0
   18.5473   69.9753   -3.5306 C   0  0  0  0  0  0  0  0  0  0  0  0
   19.7474   69.1083   -4.9163 H   0  0  0  0  0  0  0  0  0  0  0  0
   19.7170   75.1471   -5.5192 O   0  0  0  0  0  0  0  0  0  0  0  0
   20.7327   73.8916   -5.4485 P   0  0  2  0  0  0  0  0  0  0  0  0
   22.0104   74.3995   -6.3011 O   0  0  0  0  0  0  0  0  0  0  0  0
   20.1440   72.5962   -5.9273 O   0  0  0  0  0  0  0  0  0  0  0  0
   21.2468   73.8678   -3.9188 O   0  0  0  0  0  0  0  0  0  0  0  0
   23.2880   74.0592   -2.7298 O   0  0  0  0  0  0  0  0  0  0  0  0
   21.8554   70.5815   -1.0256 O   0  0  0  0  0  0  0  0  0  0  0  0
   21.8588   73.0128    0.5030 O   0  0  0  0  0  0  0  0  0  0  0  0
   21.4669   71.0709   -3.8521 O   0  0  0  0  0  0  0  0  0  0  0  0
   21.7567   71.8857   -1.6041 C   0  0  1  0  0  0  0  0  0  0  0  0
   22.5526   72.8587   -0.7319 C   0  0  1  0  0  0  0  0  0  0  0  0
   22.3240   71.8471   -3.0219 C   0  0  2  0  0  0  0  0  0  0  0  0
   22.7167   74.2176   -1.4259 C   0  0  1  0  0  0  0  0  0  0  0  0
   22.4927   73.2529   -3.6012 C   0  0  1  0  0  0  0  0  0  0  0  0
   21.4964   70.5990   -0.1254 H   0  0  0  0  0  0  0  0  0  0  0  0
   21.7614   72.1475    0.9308 H   0  0  0  0  0  0  0  0  0  0  0  0
   21.3684   70.1833   -3.4748 H   0  0  0  0  0  0  0  0  0  0  0  0
   24.4936   75.8091   -1.5622 O   0  0  0  0  0  0  0  0  0  0  0  0
   23.6395   75.1508   -0.6450 C   0  0  0  0  0  0  0  0  0  0  0  0
   25.0865   76.4067   -1.0794 H   0  0  0  0  0  0  0  0  0  0  0  0
 25 28  1  0
 25 24  1  0
 25 26  1  6
 25 27  2  0
  1  4  1  0
  1 24  1  0
  1  2  1  1
  1  3  2  0
  6 11  1  0
  6 12  1  0
 29 36  1  0
 29 37  1  0
  9  7  1  6
  7 13  1  0
 10  8  1  6
  8 14  1  0
 37 28  1  1
  4  5  1  0
 33 30  1  1
 30 38  1  0
 34 31  1  1
 31 39  1  0
 35 32  1  6
 32 40  1  0
 41 42  1  0
 41 43  1  0
 15 19  2  0
 16 22  2  0
 12 17  1  1
 17 19  1  0
 17 20  1  0
 18 19  1  0
 18 22  1  0
 18 23  1  0
  9 10  1  0
  9 11  1  0
 10 12  1  0
 11  5  1  1
 33 34  1  0
 33 35  1  0
 34 36  1  0
 35 37  1  0
 36 42  1  1
 20 21  2  0
 21 22  1  0
M  CHG  2   2  -1  26  -1
M  END
>  <COMPND>  (151) 
    8629 

>  <AUTHOR>  (151) 
    GENERATED BY OPEN BABEL 3.1.1

>  <MASTER>  (151) 
        0    0    0    0    0    0    0    0   58    0   58    0

>  <minimizedAffinity>  (151) 
-6.66197

>  <CNNscore>  (151) 
0.4339110255

>  <CNNaffinity>  (151) 
4.0874891281

>  <CNN_VS>  (151) 
1.7736066580

>  <CNNaffinity_variance>  (151) 
0.4249897897

$$$$
152
     RDKit          3D

 43 45  0  0  0  0  0  0  0  0999 V2000
   19.7044   75.5304   -7.1043 P   0  0  2  0  0  0  0  0  0  0  0  0
   18.1289   75.6356   -6.7518 O   0  0  0  0  0  0  0  0  0  0  0  0
   20.2987   76.7609   -7.7240 O   0  0  0  0  0  0  0  0  0  0  0  0
   19.8162   74.1768   -7.9835 O   0  0  0  0  0  0  0  0  0  0  0  0
   18.7816   73.2144   -7.8777 C   0  0  0  0  0  0  0  0  0  0  0  0
   19.0878   70.8864   -7.3671 O   0  0  0  0  0  0  0  0  0  0  0  0
   19.3793   70.4692  -10.3221 O   0  0  0  0  0  0  0  0  0  0  0  0
   16.8120   69.6740   -9.8599 O   0  0  0  0  0  0  0  0  0  0  0  0
   18.5318   71.3756   -9.6182 C   0  0  1  0  0  0  0  0  0  0  0  0
   17.3752   70.6303   -8.9853 C   0  0  2  0  0  0  0  0  0  0  0  0
   19.2927   71.8777   -8.3975 C   0  0  1  0  0  0  0  0  0  0  0  0
   18.0349   69.9964   -7.7724 C   0  0  2  0  0  0  0  0  0  0  0  0
   18.9149   70.1353  -11.1062 H   0  0  0  0  0  0  0  0  0  0  0  0
   16.4049   70.1264  -10.6151 H   0  0  0  0  0  0  0  0  0  0  0  0
   18.8141   69.4563   -5.1117 O   0  0  0  0  0  0  0  0  0  0  0  0
   14.4419   69.3619   -3.6569 O   0  0  0  0  0  0  0  0  0  0  0  0
   17.1210   69.8264   -6.6781 N   0  0  0  0  0  0  0  0  0  0  0  0
   16.6365   69.4099   -4.3894 N   0  0  0  0  0  0  0  0  0  0  0  0
   17.6153   69.5571   -5.3806 C   0  0  0  0  0  0  0  0  0  0  0  0
   15.7515   69.9272   -6.8971 C   0  0  0  0  0  0  0  0  0  0  0  0
   14.8311   69.7830   -5.9414 C   0  0  0  0  0  0  0  0  0  0  0  0
   15.2638   69.4999   -4.5577 C   0  0  0  0  0  0  0  0  0  0  0  0
   16.9573   69.2215   -3.4777 H   0  0  0  0  0  0  0  0  0  0  0  0
   20.3649   75.1022   -5.6924 O   0  0  0  0  0  0  0  0  0  0  0  0
   21.8598   74.6080   -5.3263 P   0  0  2  0  0  0  0  0  0  0  0  0
   22.7321   75.9677   -5.4145 O   0  0  0  0  0  0  0  0  0  0  0  0
   22.3671   73.4897   -6.1899 O   0  0  0  0  0  0  0  0  0  0  0  0
   21.8015   74.2627   -3.7507 O   0  0  0  0  0  0  0  0  0  0  0  0
   23.3208   74.6250   -1.9684 O   0  0  0  0  0  0  0  0  0  0  0  0
   22.0283   70.8317   -0.9728 O   0  0  0  0  0  0  0  0  0  0  0  0
   21.1644   73.0801    0.5914 O   0  0  0  0  0  0  0  0  0  0  0  0
   22.4474   71.5318   -3.7501 O   0  0  0  0  0  0  0  0  0  0  0  0
   21.8981   72.1586   -1.4903 C   0  0  1  0  0  0  0  0  0  0  0  0
   22.2179   73.1455   -0.3658 C   0  0  1  0  0  0  0  0  0  0  0  0
   22.8698   72.3376   -2.6553 C   0  0  2  0  0  0  0  0  0  0  0  0
   22.3605   74.5745   -0.9068 C   0  0  1  0  0  0  0  0  0  0  0  0
   22.9740   73.8023   -3.0840 C   0  0  1  0  0  0  0  0  0  0  0  0
   21.4136   70.7114   -0.2330 H   0  0  0  0  0  0  0  0  0  0  0  0
   21.0846   72.1726    0.9247 H   0  0  0  0  0  0  0  0  0  0  0  0
   22.3857   70.6070   -3.4660 H   0  0  0  0  0  0  0  0  0  0  0  0
   23.2030   74.8064    1.3170 O   0  0  0  0  0  0  0  0  0  0  0  0
   22.8338   75.5490    0.1696 C   0  0  0  0  0  0  0  0  0  0  0  0
   23.5067   75.4137    2.0104 H   0  0  0  0  0  0  0  0  0  0  0  0
 25 28  1  0
 25 24  1  0
 25 26  1  1
 25 27  2  0
  1  4  1  0
  1 24  1  0
  1  2  1  1
  1  3  2  0
  6 11  1  0
  6 12  1  0
 29 36  1  0
 29 37  1  0
  9  7  1  1
  7 13  1  0
 10  8  1  6
  8 14  1  0
 37 28  1  1
  4  5  1  0
 33 30  1  1
 30 38  1  0
 34 31  1  1
 31 39  1  0
 35 32  1  6
 32 40  1  0
 41 42  1  0
 41 43  1  0
 15 19  2  0
 16 22  2  0
 12 17  1  1
 17 19  1  0
 17 20  1  0
 18 19  1  0
 18 22  1  0
 18 23  1  0
  9 10  1  0
  9 11  1  0
 10 12  1  0
 11  5  1  1
 33 34  1  0
 33 35  1  0
 34 36  1  0
 35 37  1  0
 36 42  1  1
 20 21  2  0
 21 22  1  0
M  CHG  2   2  -1  26  -1
M  END
>  <COMPND>  (152) 
    8629 

>  <AUTHOR>  (152) 
    GENERATED BY OPEN BABEL 3.1.1

>  <MASTER>  (152) 
        0    0    0    0    0    0    0    0   58    0   58    0

>  <minimizedAffinity>  (152) 
-7.14596

>  <CNNscore>  (152) 
0.4200340807

>  <CNNaffinity>  (152) 
4.3705720901

>  <CNN_VS>  (152) 
1.8357892036

>  <CNNaffinity_variance>  (152) 
0.1992518604

$$$$
153
     RDKit          3D

 43 45  0  0  0  0  0  0  0  0999 V2000
   20.6056   73.1908   -3.3759 P   0  0  2  0  0  0  0  0  0  0  0  0
   21.9323   73.7469   -4.1161 O   0  0  0  0  0  0  0  0  0  0  0  0
   19.4562   74.1541   -3.3272 O   0  0  0  0  0  0  0  0  0  0  0  0
   21.1489   72.6721   -1.9429 O   0  0  0  0  0  0  0  0  0  0  0  0
   22.2448   73.3473   -1.3506 C   0  0  0  0  0  0  0  0  0  0  0  0
   23.5599   73.3028    0.6599 O   0  0  0  0  0  0  0  0  0  0  0  0
   20.9599   73.4873    2.1420 O   0  0  0  0  0  0  0  0  0  0  0  0
   21.8839   76.0510    2.2415 O   0  0  0  0  0  0  0  0  0  0  0  0
   21.3395   74.0928    0.9073 C   0  0  1  0  0  0  0  0  0  0  0  0
   22.2927   75.2429    1.1568 C   0  0  2  0  0  0  0  0  0  0  0  0
   22.2219   73.1063    0.1526 C   0  0  1  0  0  0  0  0  0  0  0  0
   23.5989   74.5162    1.4287 C   0  0  2  0  0  0  0  0  0  0  0  0
   20.3953   74.0985    2.6416 H   0  0  0  0  0  0  0  0  0  0  0  0
   21.0489   76.4918    2.0198 H   0  0  0  0  0  0  0  0  0  0  0  0
   25.9403   74.8075    2.9813 O   0  0  0  0  0  0  0  0  0  0  0  0
   27.9342   77.4850   -0.1962 O   0  0  0  0  0  0  0  0  0  0  0  0
   24.7455   75.2835    1.0312 N   0  0  0  0  0  0  0  0  0  0  0  0
   26.9313   76.1403    1.3978 N   0  0  0  0  0  0  0  0  0  0  0  0
   25.8702   75.3665    1.8848 C   0  0  0  0  0  0  0  0  0  0  0  0
   24.7474   75.9432   -0.1930 C   0  0  0  0  0  0  0  0  0  0  0  0
   25.7668   76.6782   -0.6422 C   0  0  0  0  0  0  0  0  0  0  0  0
   26.9802   76.8161    0.1889 C   0  0  0  0  0  0  0  0  0  0  0  0
   27.7254   76.2128    1.9757 H   0  0  0  0  0  0  0  0  0  0  0  0
   20.2975   71.8153   -4.1672 O   0  0  0  0  0  0  0  0  0  0  0  0
   19.2483   70.6251   -3.8582 P   0  0  2  0  0  0  0  0  0  0  0  0
   18.1590   71.3318   -2.8931 O   0  0  0  0  0  0  0  0  0  0  0  0
   19.8739   69.3871   -3.2837 O   0  0  0  0  0  0  0  0  0  0  0  0
   18.4690   70.3952   -5.2528 O   0  0  0  0  0  0  0  0  0  0  0  0
   18.8609   70.5235   -7.5866 O   0  0  0  0  0  0  0  0  0  0  0  0
   15.5182   72.9359   -7.3452 O   0  0  0  0  0  0  0  0  0  0  0  0
   15.2973   70.3189   -8.5074 O   0  0  0  0  0  0  0  0  0  0  0  0
   17.5264   73.0384   -5.2628 O   0  0  0  0  0  0  0  0  0  0  0  0
   16.3581   71.8339   -6.9907 C   0  0  1  0  0  0  0  0  0  0  0  0
   16.5421   70.9536   -8.2285 C   0  0  1  0  0  0  0  0  0  0  0  0
   17.7046   72.3682   -6.5060 C   0  0  2  0  0  0  0  0  0  0  0  0
   17.6387   69.9038   -8.0036 C   0  0  1  0  0  0  0  0  0  0  0  0
   18.7376   71.2492   -6.3618 C   0  0  1  0  0  0  0  0  0  0  0  0
   14.6615   72.6034   -7.6534 H   0  0  0  0  0  0  0  0  0  0  0  0
   14.6134   70.9928   -8.6469 H   0  0  0  0  0  0  0  0  0  0  0  0
   16.8705   73.7445   -5.3673 H   0  0  0  0  0  0  0  0  0  0  0  0
   17.1678   69.6481  -10.3321 O   0  0  0  0  0  0  0  0  0  0  0  0
   17.9482   69.1185   -9.2762 C   0  0  0  0  0  0  0  0  0  0  0  0
   17.3547   69.1581  -11.1486 H   0  0  0  0  0  0  0  0  0  0  0  0
 25 28  1  0
 25 24  1  0
 25 26  1  1
 25 27  2  0
  1  4  1  0
  1 24  1  0
  1  2  1  6
  1  3  2  0
  6 11  1  0
  6 12  1  0
 29 36  1  0
 29 37  1  0
  9  7  1  1
  7 13  1  0
 10  8  1  1
  8 14  1  0
 37 28  1  1
  4  5  1  0
 33 30  1  6
 30 38  1  0
 34 31  1  1
 31 39  1  0
 35 32  1  1
 32 40  1  0
 41 42  1  0
 41 43  1  0
 15 19  2  0
 16 22  2  0
 12 17  1  6
 17 19  1  0
 17 20  1  0
 18 19  1  0
 18 22  1  0
 18 23  1  0
  9 10  1  0
  9 11  1  0
 10 12  1  0
 11  5  1  6
 33 34  1  0
 33 35  1  0
 34 36  1  0
 35 37  1  0
 36 42  1  6
 20 21  2  0
 21 22  1  0
M  CHG  2   2  -1  26  -1
M  END
>  <COMPND>  (153) 
    8629 

>  <AUTHOR>  (153) 
    GENERATED BY OPEN BABEL 3.1.1

>  <MASTER>  (153) 
        0    0    0    0    0    0    0    0   58    0   58    0

>  <minimizedAffinity>  (153) 
-6.75827

>  <CNNscore>  (153) 
0.3843083084

>  <CNNaffinity>  (153) 
3.8523597717

>  <CNN_VS>  (153) 
1.4804939032

>  <CNNaffinity_variance>  (153) 
0.1602774262

$$$$
154
     RDKit          3D

 43 45  0  0  0  0  0  0  0  0999 V2000
   19.1893   75.1689   -7.6654 P   0  0  2  0  0  0  0  0  0  0  0  0
   18.5321   76.2384   -8.6860 O   0  0  0  0  0  0  0  0  0  0  0  0
   20.6451   75.3842   -7.3726 O   0  0  0  0  0  0  0  0  0  0  0  0
   18.8062   73.7338   -8.3069 O   0  0  0  0  0  0  0  0  0  0  0  0
   19.7634   72.6905   -8.2497 C   0  0  0  0  0  0  0  0  0  0  0  0
   19.1900   70.3659   -8.0466 O   0  0  0  0  0  0  0  0  0  0  0  0
   17.5498   70.7465  -10.5277 O   0  0  0  0  0  0  0  0  0  0  0  0
   15.6692   70.8230   -8.5544 O   0  0  0  0  0  0  0  0  0  0  0  0
   17.7740   71.6504   -9.4469 C   0  0  1  0  0  0  0  0  0  0  0  0
   16.9860   71.2182   -8.2280 C   0  0  2  0  0  0  0  0  0  0  0  0
   19.2119   71.4714   -8.9761 C   0  0  1  0  0  0  0  0  0  0  0  0
   17.8275   70.0686   -7.7001 C   0  0  2  0  0  0  0  0  0  0  0  0
   16.6378   70.8427  -10.8456 H   0  0  0  0  0  0  0  0  0  0  0  0
   15.1743   71.5888   -8.8852 H   0  0  0  0  0  0  0  0  0  0  0  0
   15.6375   68.8902   -6.3609 O   0  0  0  0  0  0  0  0  0  0  0  0
   17.5575   69.5813   -2.2285 O   0  0  0  0  0  0  0  0  0  0  0  0
   17.7290   69.9272   -6.2748 N   0  0  0  0  0  0  0  0  0  0  0  0
   16.5954   69.2351   -4.3044 N   0  0  0  0  0  0  0  0  0  0  0  0
   16.5862   69.3215   -5.7024 C   0  0  0  0  0  0  0  0  0  0  0  0
   18.7584   70.3861   -5.4601 C   0  0  0  0  0  0  0  0  0  0  0  0
   18.7513   70.2973   -4.1284 C   0  0  0  0  0  0  0  0  0  0  0  0
   17.5939   69.6776   -3.4513 C   0  0  0  0  0  0  0  0  0  0  0  0
   15.8093   68.8172   -3.8835 H   0  0  0  0  0  0  0  0  0  0  0  0
   18.2227   75.2587   -6.3728 O   0  0  0  0  0  0  0  0  0  0  0  0
   18.5283   75.6970   -4.8472 P   0  0  2  0  0  0  0  0  0  0  0  0
   17.1902   75.2472   -4.0569 O   0  0  0  0  0  0  0  0  0  0  0  0
   18.8869   77.1456   -4.6832 O   0  0  0  0  0  0  0  0  0  0  0  0
   19.6640   74.6657   -4.3456 O   0  0  0  0  0  0  0  0  0  0  0  0
   20.5543   74.0871   -2.2269 O   0  0  0  0  0  0  0  0  0  0  0  0
   24.0690   74.2982   -4.3840 O   0  0  0  0  0  0  0  0  0  0  0  0
   23.0529   71.7365   -3.5760 O   0  0  0  0  0  0  0  0  0  0  0  0
   21.9482   76.2027   -4.8889 O   0  0  0  0  0  0  0  0  0  0  0  0
   22.6811   74.0211   -4.1784 C   0  0  1  0  0  0  0  0  0  0  0  0
   22.5603   72.9738   -3.0696 C   0  0  1  0  0  0  0  0  0  0  0  0
   21.9682   75.3117   -3.7789 C   0  0  2  0  0  0  0  0  0  0  0  0
   21.1047   72.8208   -2.6082 C   0  0  1  0  0  0  0  0  0  0  0  0
   20.5441   75.0422   -3.2897 C   0  0  1  0  0  0  0  0  0  0  0  0
   24.5273   73.4829   -4.6384 H   0  0  0  0  0  0  0  0  0  0  0  0
   23.9726   71.8469   -3.8643 H   0  0  0  0  0  0  0  0  0  0  0  0
   22.8556   76.3656   -5.1890 H   0  0  0  0  0  0  0  0  0  0  0  0
   22.1855   71.9701   -0.6545 O   0  0  0  0  0  0  0  0  0  0  0  0
   20.9824   71.8984   -1.3973 C   0  0  0  0  0  0  0  0  0  0  0  0
   22.1220   71.3883    0.1195 H   0  0  0  0  0  0  0  0  0  0  0  0
 25 28  1  0
 25 24  1  0
 25 26  1  1
 25 27  2  0
  1  4  1  0
  1 24  1  0
  1  2  1  6
  1  3  2  0
  6 11  1  0
  6 12  1  0
 29 36  1  0
 29 37  1  0
  9  7  1  6
  7 13  1  0
 10  8  1  6
  8 14  1  0
 37 28  1  6
  4  5  1  0
 33 30  1  1
 30 38  1  0
 34 31  1  6
 31 39  1  0
 35 32  1  6
 32 40  1  0
 41 42  1  0
 41 43  1  0
 15 19  2  0
 16 22  2  0
 12 17  1  1
 17 19  1  0
 17 20  1  0
 18 19  1  0
 18 22  1  0
 18 23  1  0
  9 10  1  0
  9 11  1  0
 10 12  1  0
 11  5  1  1
 33 34  1  0
 33 35  1  0
 34 36  1  0
 35 37  1  0
 36 42  1  1
 20 21  2  0
 21 22  1  0
M  CHG  2   2  -1  26  -1
M  END
>  <COMPND>  (154) 
    8629 

>  <AUTHOR>  (154) 
    GENERATED BY OPEN BABEL 3.1.1

>  <MASTER>  (154) 
        0    0    0    0    0    0    0    0   58    0   58    0

>  <minimizedAffinity>  (154) 
-6.68275

>  <CNNscore>  (154) 
0.3589944541

>  <CNNaffinity>  (154) 
3.9352843761

>  <CNN_VS>  (154) 
1.4127452374

>  <CNNaffinity_variance>  (154) 
0.7057721615

$$$$
155
     RDKit          3D

 43 45  0  0  0  0  0  0  0  0999 V2000
   16.2974   70.4002   -3.9292 P   0  0  2  0  0  0  0  0  0  0  0  0
   17.5274   69.7395   -3.1120 O   0  0  0  0  0  0  0  0  0  0  0  0
   14.9768   70.3741   -3.2173 O   0  0  0  0  0  0  0  0  0  0  0  0
   16.3375   69.6522   -5.3633 O   0  0  0  0  0  0  0  0  0  0  0  0
   17.1508   70.1972   -6.3877 C   0  0  0  0  0  0  0  0  0  0  0  0
   15.1289   70.2967   -7.6823 O   0  0  0  0  0  0  0  0  0  0  0  0
   16.8799   69.9768  -10.0953 O   0  0  0  0  0  0  0  0  0  0  0  0
   16.3627   72.6543  -10.0870 O   0  0  0  0  0  0  0  0  0  0  0  0
   17.1336   70.6869   -8.8843 C   0  0  1  0  0  0  0  0  0  0  0  0
   16.3322   71.9715   -8.8502 C   0  0  2  0  0  0  0  0  0  0  0  0
   16.5155   69.8959   -7.7381 C   0  0  1  0  0  0  0  0  0  0  0  0
   14.9438   71.4673   -8.4948 C   0  0  2  0  0  0  0  0  0  0  0  0
   17.2657   70.4626  -10.8417 H   0  0  0  0  0  0  0  0  0  0  0  0
   17.2668   72.9552  -10.2681 H   0  0  0  0  0  0  0  0  0  0  0  0
   13.4207   73.5376   -9.6663 O   0  0  0  0  0  0  0  0  0  0  0  0
   12.0672   75.1176   -5.5538 O   0  0  0  0  0  0  0  0  0  0  0  0
   14.1832   72.4337   -7.7539 N   0  0  0  0  0  0  0  0  0  0  0  0
   12.7479   74.3225   -7.6176 N   0  0  0  0  0  0  0  0  0  0  0  0
   13.4535   73.4335   -8.4384 C   0  0  0  0  0  0  0  0  0  0  0  0
   14.1656   72.3840   -6.3643 C   0  0  0  0  0  0  0  0  0  0  0  0
   13.4887   73.2401   -5.5961 C   0  0  0  0  0  0  0  0  0  0  0  0
   12.7002   74.3149   -6.2326 C   0  0  0  0  0  0  0  0  0  0  0  0
   12.2325   75.0278   -8.0725 H   0  0  0  0  0  0  0  0  0  0  0  0
   16.8453   71.8809   -4.2763 O   0  0  0  0  0  0  0  0  0  0  0  0
   17.0260   73.1909   -3.3466 P   0  0  2  0  0  0  0  0  0  0  0  0
   16.7577   72.6266   -1.8542 O   0  0  0  0  0  0  0  0  0  0  0  0
   16.1528   74.3479   -3.7374 O   0  0  0  0  0  0  0  0  0  0  0  0
   18.6088   73.5043   -3.3856 O   0  0  0  0  0  0  0  0  0  0  0  0
   19.8872   72.1851   -1.8882 O   0  0  0  0  0  0  0  0  0  0  0  0
   22.7341   75.0083   -2.8760 O   0  0  0  0  0  0  0  0  0  0  0  0
   22.9708   72.3366   -3.9026 O   0  0  0  0  0  0  0  0  0  0  0  0
   19.9722   75.8028   -2.5293 O   0  0  0  0  0  0  0  0  0  0  0  0
   21.6190   74.1445   -3.1120 C   0  0  1  0  0  0  0  0  0  0  0  0
   22.0677   72.7032   -2.8632 C   0  0  1  0  0  0  0  0  0  0  0  0
   20.4832   74.5253   -2.1642 C   0  0  2  0  0  0  0  0  0  0  0  0
   20.8682   71.7465   -2.8354 C   0  0  1  0  0  0  0  0  0  0  0  0
   19.3636   73.4830   -2.1768 C   0  0  1  0  0  0  0  0  0  0  0  0
   23.4586   74.7722   -3.4750 H   0  0  0  0  0  0  0  0  0  0  0  0
   23.7233   72.9488   -3.9096 H   0  0  0  0  0  0  0  0  0  0  0  0
   20.6905   76.4537   -2.5172 H   0  0  0  0  0  0  0  0  0  0  0  0
   22.1025   70.4096   -1.2868 O   0  0  0  0  0  0  0  0  0  0  0  0
   21.2750   70.3306   -2.4328 C   0  0  0  0  0  0  0  0  0  0  0  0
   22.3690   69.5157   -1.0190 H   0  0  0  0  0  0  0  0  0  0  0  0
 25 28  1  0
 25 24  1  0
 25 26  1  1
 25 27  2  0
  1  4  1  0
  1 24  1  0
  1  2  1  1
  1  3  2  0
  6 11  1  0
  6 12  1  0
 29 36  1  0
 29 37  1  0
  9  7  1  6
  7 13  1  0
 10  8  1  6
  8 14  1  0
 37 28  1  6
  4  5  1  0
 33 30  1  1
 30 38  1  0
 34 31  1  6
 31 39  1  0
 35 32  1  6
 32 40  1  0
 41 42  1  0
 41 43  1  0
 15 19  2  0
 16 22  2  0
 12 17  1  1
 17 19  1  0
 17 20  1  0
 18 19  1  0
 18 22  1  0
 18 23  1  0
  9 10  1  0
  9 11  1  0
 10 12  1  0
 11  5  1  1
 33 34  1  0
 33 35  1  0
 34 36  1  0
 35 37  1  0
 36 42  1  1
 20 21  2  0
 21 22  1  0
M  CHG  2   2  -1  26  -1
M  END
>  <COMPND>  (155) 
    8629 

>  <AUTHOR>  (155) 
    GENERATED BY OPEN BABEL 3.1.1

>  <MASTER>  (155) 
        0    0    0    0    0    0    0    0   58    0   58    0

>  <minimizedAffinity>  (155) 
-6.54221

>  <CNNscore>  (155) 
0.3531825244

>  <CNNaffinity>  (155) 
3.8860735893

>  <CNN_VS>  (155) 
1.3724932671

>  <CNNaffinity_variance>  (155) 
0.3200457096

$$$$
156
     RDKit          3D

 43 45  0  0  0  0  0  0  0  0999 V2000
   18.6816   70.2339   -9.0069 P   0  0  2  0  0  0  0  0  0  0  0  0
   19.1513   68.7274   -8.6501 O   0  0  0  0  0  0  0  0  0  0  0  0
   19.1950   70.7653  -10.3129 O   0  0  0  0  0  0  0  0  0  0  0  0
   19.0853   71.0880   -7.6934 O   0  0  0  0  0  0  0  0  0  0  0  0
   19.9537   72.1969   -7.8485 C   0  0  0  0  0  0  0  0  0  0  0  0
   18.9115   73.2293   -5.9454 O   0  0  0  0  0  0  0  0  0  0  0  0
   19.3040   75.8336   -7.3787 O   0  0  0  0  0  0  0  0  0  0  0  0
   21.3493   75.8337   -5.5750 O   0  0  0  0  0  0  0  0  0  0  0  0
   20.1483   74.6840   -7.3490 C   0  0  1  0  0  0  0  0  0  0  0  0
   20.8545   74.5847   -6.0129 C   0  0  2  0  0  0  0  0  0  0  0  0
   19.2576   73.4480   -7.3306 C   0  0  1  0  0  0  0  0  0  0  0  0
   19.7549   74.0439   -5.1148 C   0  0  2  0  0  0  0  0  0  0  0  0
   19.8505   76.6356   -7.3912 H   0  0  0  0  0  0  0  0  0  0  0  0
   22.0461   76.1353   -6.1785 H   0  0  0  0  0  0  0  0  0  0  0  0
   18.3547   73.4838   -2.7265 O   0  0  0  0  0  0  0  0  0  0  0  0
   21.8286   70.9491   -1.0687 O   0  0  0  0  0  0  0  0  0  0  0  0
   20.2695   73.2400   -4.0423 N   0  0  0  0  0  0  0  0  0  0  0  0
   20.0855   72.2220   -1.9031 N   0  0  0  0  0  0  0  0  0  0  0  0
   19.4861   73.0207   -2.8853 C   0  0  0  0  0  0  0  0  0  0  0  0
   21.5377   72.6784   -4.1441 C   0  0  0  0  0  0  0  0  0  0  0  0
   22.0954   71.9202   -3.1979 C   0  0  0  0  0  0  0  0  0  0  0  0
   21.3433   71.6425   -1.9572 C   0  0  0  0  0  0  0  0  0  0  0  0
   19.5585   72.0560   -1.0880 H   0  0  0  0  0  0  0  0  0  0  0  0
   17.0708   70.1467   -8.9027 O   0  0  0  0  0  0  0  0  0  0  0  0
   15.9910   71.1704   -8.2711 P   0  0  2  0  0  0  0  0  0  0  0  0
   14.5717   70.4896   -8.6445 O   0  0  0  0  0  0  0  0  0  0  0  0
   16.1400   72.5887   -8.7403 O   0  0  0  0  0  0  0  0  0  0  0  0
   16.1289   70.9761   -6.6748 O   0  0  0  0  0  0  0  0  0  0  0  0
   17.4350   69.3239   -5.5879 O   0  0  0  0  0  0  0  0  0  0  0  0
   14.4578   69.7757   -2.7624 O   0  0  0  0  0  0  0  0  0  0  0  0
   17.0833   70.8128   -2.2340 O   0  0  0  0  0  0  0  0  0  0  0  0
   13.7991   69.8587   -5.5800 O   0  0  0  0  0  0  0  0  0  0  0  0
   15.3631   70.2078   -3.7818 C   0  0  1  0  0  0  0  0  0  0  0  0
   16.7898   69.9236   -3.3081 C   0  0  1  0  0  0  0  0  0  0  0  0
   15.0630   69.4461   -5.0714 C   0  0  2  0  0  0  0  0  0  0  0  0
   17.7998   70.1112   -4.4482 C   0  0  1  0  0  0  0  0  0  0  0  0
   16.1536   69.6626   -6.1221 C   0  0  1  0  0  0  0  0  0  0  0  0
   14.6427   70.2559   -1.9410 H   0  0  0  0  0  0  0  0  0  0  0  0
   16.4381   70.6846   -1.5210 H   0  0  0  0  0  0  0  0  0  0  0  0
   13.1172   69.7163   -4.9057 H   0  0  0  0  0  0  0  0  0  0  0  0
   19.1605   69.1832   -2.7172 O   0  0  0  0  0  0  0  0  0  0  0  0
   19.2077   69.6815   -4.0415 C   0  0  0  0  0  0  0  0  0  0  0  0
   20.0496   68.9056   -2.4450 H   0  0  0  0  0  0  0  0  0  0  0  0
 25 28  1  0
 25 24  1  0
 25 26  1  6
 25 27  2  0
  1  4  1  0
  1 24  1  0
  1  2  1  1
  1  3  2  0
  6 11  1  0
  6 12  1  0
 29 36  1  0
 29 37  1  0
  9  7  1  1
  7 13  1  0
 10  8  1  1
  8 14  1  0
 37 28  1  1
  4  5  1  0
 33 30  1  1
 30 38  1  0
 34 31  1  1
 31 39  1  0
 35 32  1  6
 32 40  1  0
 41 42  1  0
 41 43  1  0
 15 19  2  0
 16 22  2  0
 12 17  1  1
 17 19  1  0
 17 20  1  0
 18 19  1  0
 18 22  1  0
 18 23  1  0
  9 10  1  0
  9 11  1  0
 10 12  1  0
 11  5  1  1
 33 34  1  0
 33 35  1  0
 34 36  1  0
 35 37  1  0
 36 42  1  1
 20 21  2  0
 21 22  1  0
M  CHG  2   2  -1  26  -1
M  END
>  <COMPND>  (156) 
    8629 

>  <AUTHOR>  (156) 
    GENERATED BY OPEN BABEL 3.1.1

>  <MASTER>  (156) 
        0    0    0    0    0    0    0    0   58    0   58    0

>  <minimizedAffinity>  (156) 
-7.11381

>  <CNNscore>  (156) 
0.3521369994

>  <CNNaffinity>  (156) 
3.8711142540

>  <CNN_VS>  (156) 
1.3631625175

>  <CNNaffinity_variance>  (156) 
0.8692924380

$$$$
157
     RDKit          3D

 43 45  0  0  0  0  0  0  0  0999 V2000
   20.9112   73.3578   -6.5805 P   0  0  2  0  0  0  0  0  0  0  0  0
   22.2767   73.7428   -7.3582 O   0  0  0  0  0  0  0  0  0  0  0  0
   21.0609   73.1499   -5.1021 O   0  0  0  0  0  0  0  0  0  0  0  0
   20.3329   72.0964   -7.4125 O   0  0  0  0  0  0  0  0  0  0  0  0
   19.5642   72.3489   -8.5758 C   0  0  0  0  0  0  0  0  0  0  0  0
   19.1108   70.0368   -8.1040 O   0  0  0  0  0  0  0  0  0  0  0  0
   17.5207   70.0237  -10.6461 O   0  0  0  0  0  0  0  0  0  0  0  0
   15.5857   70.2302   -8.7358 O   0  0  0  0  0  0  0  0  0  0  0  0
   17.6666   71.0619   -9.6786 C   0  0  1  0  0  0  0  0  0  0  0  0
   16.8701   70.7353   -8.4327 C   0  0  2  0  0  0  0  0  0  0  0  0
   19.0987   71.0222   -9.1601 C   0  0  1  0  0  0  0  0  0  0  0  0
   17.7572   69.7068   -7.7521 C   0  0  2  0  0  0  0  0  0  0  0  0
   16.6139   70.0294  -10.9920 H   0  0  0  0  0  0  0  0  0  0  0  0
   15.0597   70.9215   -9.1672 H   0  0  0  0  0  0  0  0  0  0  0  0
   15.4930   68.7834   -6.3383 O   0  0  0  0  0  0  0  0  0  0  0  0
   17.3704   69.8544   -2.2678 O   0  0  0  0  0  0  0  0  0  0  0  0
   17.6277   69.7321   -6.3224 N   0  0  0  0  0  0  0  0  0  0  0  0
   16.4297   69.3173   -4.3127 N   0  0  0  0  0  0  0  0  0  0  0  0
   16.4487   69.2452   -5.7114 C   0  0  0  0  0  0  0  0  0  0  0  0
   18.6626   70.2353   -5.5417 C   0  0  0  0  0  0  0  0  0  0  0  0
   18.6284   70.2983   -4.2090 C   0  0  0  0  0  0  0  0  0  0  0  0
   17.4324   69.8099   -3.4925 C   0  0  0  0  0  0  0  0  0  0  0  0
   15.6183   68.9841   -3.8651 H   0  0  0  0  0  0  0  0  0  0  0  0
   19.9078   74.5561   -6.9931 O   0  0  0  0  0  0  0  0  0  0  0  0
   18.6574   75.2120   -6.2061 P   0  0  2  0  0  0  0  0  0  0  0  0
   18.7144   76.7669   -6.6495 O   0  0  0  0  0  0  0  0  0  0  0  0
   18.6800   74.9902   -4.7215 O   0  0  0  0  0  0  0  0  0  0  0  0
   17.3519   74.6235   -6.9506 O   0  0  0  0  0  0  0  0  0  0  0  0
   16.3940   75.4312   -8.9623 O   0  0  0  0  0  0  0  0  0  0  0  0
   12.9746   74.0314   -7.1187 O   0  0  0  0  0  0  0  0  0  0  0  0
   14.0688   72.5977   -9.3537 O   0  0  0  0  0  0  0  0  0  0  0  0
   15.0270   75.3404   -5.5522 O   0  0  0  0  0  0  0  0  0  0  0  0
   14.3630   74.0314   -7.4619 C   0  0  1  0  0  0  0  0  0  0  0  0
   14.4811   73.9101   -8.9825 C   0  0  1  0  0  0  0  0  0  0  0  0
   14.9974   75.3330   -6.9754 C   0  0  2  0  0  0  0  0  0  0  0  0
   15.9198   74.1702   -9.4489 C   0  0  1  0  0  0  0  0  0  0  0  0
   16.4088   75.5174   -7.5360 C   0  0  1  0  0  0  0  0  0  0  0  0
   12.5659   73.2074   -7.4244 H   0  0  0  0  0  0  0  0  0  0  0  0
   13.1590   72.4461   -9.0530 H   0  0  0  0  0  0  0  0  0  0  0  0
   14.1276   75.2232   -5.2097 H   0  0  0  0  0  0  0  0  0  0  0  0
   14.7474   74.4837  -11.5070 O   0  0  0  0  0  0  0  0  0  0  0  0
   16.0290   74.2100  -10.9716 C   0  0  0  0  0  0  0  0  0  0  0  0
   14.8016   74.5124  -12.4755 H   0  0  0  0  0  0  0  0  0  0  0  0
 25 28  1  0
 25 24  1  0
 25 26  1  1
 25 27  2  0
  1  4  1  0
  1 24  1  0
  1  2  1  6
  1  3  2  0
  6 11  1  0
  6 12  1  0
 29 36  1  0
 29 37  1  0
  9  7  1  6
  7 13  1  0
 10  8  1  6
  8 14  1  0
 37 28  1  1
  4  5  1  0
 33 30  1  6
 30 38  1  0
 34 31  1  1
 31 39  1  0
 35 32  1  1
 32 40  1  0
 41 42  1  0
 41 43  1  0
 15 19  2  0
 16 22  2  0
 12 17  1  1
 17 19  1  0
 17 20  1  0
 18 19  1  0
 18 22  1  0
 18 23  1  0
  9 10  1  0
  9 11  1  0
 10 12  1  0
 11  5  1  1
 33 34  1  0
 33 35  1  0
 34 36  1  0
 35 37  1  0
 36 42  1  6
 20 21  2  0
 21 22  1  0
M  CHG  2   2  -1  26  -1
M  END
>  <COMPND>  (157) 
    8629 

>  <AUTHOR>  (157) 
    GENERATED BY OPEN BABEL 3.1.1

>  <MASTER>  (157) 
        0    0    0    0    0    0    0    0   58    0   58    0

>  <minimizedAffinity>  (157) 
-6.70025

>  <CNNscore>  (157) 
0.3433358967

>  <CNNaffinity>  (157) 
3.9550132751

>  <CNN_VS>  (157) 
1.3578979969

>  <CNNaffinity_variance>  (157) 
0.5944895744

$$$$
158
     RDKit          3D

 43 45  0  0  0  0  0  0  0  0999 V2000
   18.3558   70.4584   -9.3931 P   0  0  2  0  0  0  0  0  0  0  0  0
   19.1885   69.3188   -8.6023 O   0  0  0  0  0  0  0  0  0  0  0  0
   17.5427   69.9602  -10.5516 O   0  0  0  0  0  0  0  0  0  0  0  0
   19.4691   71.5782   -9.7461 O   0  0  0  0  0  0  0  0  0  0  0  0
   20.4830   71.8473   -8.7935 C   0  0  0  0  0  0  0  0  0  0  0  0
   19.3707   73.1896   -7.1398 O   0  0  0  0  0  0  0  0  0  0  0  0
   21.4320   75.2867   -7.7262 O   0  0  0  0  0  0  0  0  0  0  0  0
   22.3568   74.1742   -5.4145 O   0  0  0  0  0  0  0  0  0  0  0  0
   21.5724   73.8673   -7.6953 C   0  0  1  0  0  0  0  0  0  0  0  0
   21.5659   73.3693   -6.2651 C   0  0  2  0  0  0  0  0  0  0  0  0
   20.2916   73.2568   -8.2505 C   0  0  1  0  0  0  0  0  0  0  0  0
   20.0881   73.4279   -5.9177 C   0  0  2  0  0  0  0  0  0  0  0  0
   22.2381   75.6989   -7.3766 H   0  0  0  0  0  0  0  0  0  0  0  0
   23.2881   74.1031   -5.6758 H   0  0  0  0  0  0  0  0  0  0  0  0
   20.3904   73.7153   -3.1242 O   0  0  0  0  0  0  0  0  0  0  0  0
   18.6118   69.5407   -2.3177 O   0  0  0  0  0  0  0  0  0  0  0  0
   19.7120   72.4319   -4.9544 N   0  0  0  0  0  0  0  0  0  0  0  0
   19.5044   71.6365   -2.7249 N   0  0  0  0  0  0  0  0  0  0  0  0
   19.9067   72.6748   -3.5747 C   0  0  0  0  0  0  0  0  0  0  0  0
   19.1566   71.2304   -5.3807 C   0  0  0  0  0  0  0  0  0  0  0  0
   18.7794   70.2498   -4.5575 C   0  0  0  0  0  0  0  0  0  0  0  0
   18.9487   70.4237   -3.1005 C   0  0  0  0  0  0  0  0  0  0  0  0
   19.6308   71.7832   -1.7594 H   0  0  0  0  0  0  0  0  0  0  0  0
   17.4944   71.1599   -8.2188 O   0  0  0  0  0  0  0  0  0  0  0  0
   15.9062   71.4277   -8.0827 P   0  0  2  0  0  0  0  0  0  0  0  0
   15.7326   71.8485   -6.5301 O   0  0  0  0  0  0  0  0  0  0  0  0
   15.0483   70.2724   -8.5108 O   0  0  0  0  0  0  0  0  0  0  0  0
   15.6500   72.7922   -8.9059 O   0  0  0  0  0  0  0  0  0  0  0  0
   16.7467   73.6307  -10.8322 O   0  0  0  0  0  0  0  0  0  0  0  0
   16.0579   77.1935   -8.8617 O   0  0  0  0  0  0  0  0  0  0  0  0
   14.5254   76.5490  -11.2036 O   0  0  0  0  0  0  0  0  0  0  0  0
   16.7993   74.8326   -7.3597 O   0  0  0  0  0  0  0  0  0  0  0  0
   15.7647   75.8572   -9.2784 C   0  0  1  0  0  0  0  0  0  0  0  0
   15.6934   75.8360  -10.8065 C   0  0  1  0  0  0  0  0  0  0  0  0
   16.8671   74.9253   -8.7786 C   0  0  2  0  0  0  0  0  0  0  0  0
   15.6482   74.3975  -11.3391 C   0  0  1  0  0  0  0  0  0  0  0  0
   16.7588   73.5346   -9.4065 C   0  0  1  0  0  0  0  0  0  0  0  0
   15.3615   77.7902   -9.1755 H   0  0  0  0  0  0  0  0  0  0  0  0
   14.5662   77.4556  -10.8605 H   0  0  0  0  0  0  0  0  0  0  0  0
   16.8693   75.7194   -6.9742 H   0  0  0  0  0  0  0  0  0  0  0  0
   16.2153   75.5978  -13.3257 O   0  0  0  0  0  0  0  0  0  0  0  0
   15.7357   74.3487  -12.8630 C   0  0  0  0  0  0  0  0  0  0  0  0
   16.2765   75.5814  -14.2940 H   0  0  0  0  0  0  0  0  0  0  0  0
 25 28  1  0
 25 24  1  0
 25 26  1  1
 25 27  2  0
  1  4  1  0
  1 24  1  0
  1  2  1  1
  1  3  2  0
  6 11  1  0
  6 12  1  0
 29 36  1  0
 29 37  1  0
  9  7  1  1
  7 13  1  0
 10  8  1  1
  8 14  1  0
 37 28  1  1
  4  5  1  0
 33 30  1  6
 30 38  1  0
 34 31  1  1
 31 39  1  0
 35 32  1  1
 32 40  1  0
 41 42  1  0
 41 43  1  0
 15 19  2  0
 16 22  2  0
 12 17  1  1
 17 19  1  0
 17 20  1  0
 18 19  1  0
 18 22  1  0
 18 23  1  0
  9 10  1  0
  9 11  1  0
 10 12  1  0
 11  5  1  1
 33 34  1  0
 33 35  1  0
 34 36  1  0
 35 37  1  0
 36 42  1  6
 20 21  2  0
 21 22  1  0
M  CHG  2   2  -1  26  -1
M  END
>  <COMPND>  (158) 
    8629 

>  <AUTHOR>  (158) 
    GENERATED BY OPEN BABEL 3.1.1

>  <MASTER>  (158) 
        0    0    0    0    0    0    0    0   58    0   58    0

>  <minimizedAffinity>  (158) 
-6.46014

>  <CNNscore>  (158) 
0.3267161846

>  <CNNaffinity>  (158) 
3.8341472149

>  <CNN_VS>  (158) 
1.2526779175

>  <CNNaffinity_variance>  (158) 
0.1541020721

$$$$
159
     RDKit          3D

 43 45  0  0  0  0  0  0  0  0999 V2000
   21.6396   74.0450   -6.2629 P   0  0  2  0  0  0  0  0  0  0  0  0
   22.6484   73.2517   -5.2778 O   0  0  0  0  0  0  0  0  0  0  0  0
   22.2655   74.5712   -7.5210 O   0  0  0  0  0  0  0  0  0  0  0  0
   20.9512   75.1520   -5.3044 O   0  0  0  0  0  0  0  0  0  0  0  0
   21.7764   75.8816   -4.4131 C   0  0  0  0  0  0  0  0  0  0  0  0
   19.8860   75.3370   -3.0333 O   0  0  0  0  0  0  0  0  0  0  0  0
   21.0984   77.1544   -0.9796 O   0  0  0  0  0  0  0  0  0  0  0  0
   21.7899   74.6799   -0.0658 O   0  0  0  0  0  0  0  0  0  0  0  0
   21.7435   76.2754   -1.8997 C   0  0  1  0  0  0  0  0  0  0  0  0
   21.5813   74.8370   -1.4545 C   0  0  2  0  0  0  0  0  0  0  0  0
   20.9525   76.2965   -3.2018 C   0  0  1  0  0  0  0  0  0  0  0  0
   20.1503   74.5385   -1.8683 C   0  0  2  0  0  0  0  0  0  0  0  0
   21.5858   77.1580   -0.1403 H   0  0  0  0  0  0  0  0  0  0  0  0
   22.7145   74.8809    0.1472 H   0  0  0  0  0  0  0  0  0  0  0  0
   17.6279   73.3509   -2.3211 O   0  0  0  0  0  0  0  0  0  0  0  0
   19.5114   69.2210   -3.1195 O   0  0  0  0  0  0  0  0  0  0  0  0
   19.9523   73.1549   -2.1966 N   0  0  0  0  0  0  0  0  0  0  0  0
   18.5678   71.2956   -2.7185 N   0  0  0  0  0  0  0  0  0  0  0  0
   18.6443   72.6582   -2.4033 C   0  0  0  0  0  0  0  0  0  0  0  0
   21.0480   72.3062   -2.3108 C   0  0  0  0  0  0  0  0  0  0  0  0
   20.9580   71.0088   -2.6107 C   0  0  0  0  0  0  0  0  0  0  0  0
   19.6273   70.4108   -2.8421 C   0  0  0  0  0  0  0  0  0  0  0  0
   17.6665   70.9273   -2.8664 H   0  0  0  0  0  0  0  0  0  0  0  0
   20.4485   72.9780   -6.4994 O   0  0  0  0  0  0  0  0  0  0  0  0
   19.3866   72.8231   -7.7082 P   0  0  2  0  0  0  0  0  0  0  0  0
   20.1370   71.8232   -8.7353 O   0  0  0  0  0  0  0  0  0  0  0  0
   18.9530   74.1251   -8.3170 O   0  0  0  0  0  0  0  0  0  0  0  0
   18.1854   71.9425   -7.0864 O   0  0  0  0  0  0  0  0  0  0  0  0
   17.6956   69.6921   -6.5274 O   0  0  0  0  0  0  0  0  0  0  0  0
   14.4282   70.5044   -8.9181 O   0  0  0  0  0  0  0  0  0  0  0  0
   14.0825   70.2678   -6.0769 O   0  0  0  0  0  0  0  0  0  0  0  0
   17.0280   71.5693   -9.6155 O   0  0  0  0  0  0  0  0  0  0  0  0
   15.4510   70.8029   -7.9641 C   0  0  1  0  0  0  0  0  0  0  0  0
   15.2696   69.8758   -6.7606 C   0  0  1  0  0  0  0  0  0  0  0  0
   16.8170   70.5825   -8.6114 C   0  0  2  0  0  0  0  0  0  0  0  0
   16.4782   69.9491   -5.8177 C   0  0  1  0  0  0  0  0  0  0  0  0
   17.9450   70.6269   -7.5790 C   0  0  1  0  0  0  0  0  0  0  0  0
   13.5583   70.6427   -8.5136 H   0  0  0  0  0  0  0  0  0  0  0  0
   13.3270   70.2176   -6.6835 H   0  0  0  0  0  0  0  0  0  0  0  0
   16.3076   71.5308  -10.2630 H   0  0  0  0  0  0  0  0  0  0  0  0
   16.3563   69.6044   -3.4566 O   0  0  0  0  0  0  0  0  0  0  0  0
   16.3906   68.9183   -4.6944 C   0  0  0  0  0  0  0  0  0  0  0  0
   16.3002   68.9609   -2.7324 H   0  0  0  0  0  0  0  0  0  0  0  0
 25 28  1  0
 25 24  1  0
 25 26  1  6
 25 27  2  0
  1  4  1  0
  1 24  1  0
  1  2  1  1
  1  3  2  0
  6 11  1  0
  6 12  1  0
 29 36  1  0
 29 37  1  0
  9  7  1  1
  7 13  1  0
 10  8  1  1
  8 14  1  0
 37 28  1  1
  4  5  1  0
 33 30  1  6
 30 38  1  0
 34 31  1  1
 31 39  1  0
 35 32  1  6
 32 40  1  0
 41 42  1  0
 41 43  1  0
 15 19  2  0
 16 22  2  0
 12 17  1  6
 17 19  1  0
 17 20  1  0
 18 19  1  0
 18 22  1  0
 18 23  1  0
  9 10  1  0
  9 11  1  0
 10 12  1  0
 11  5  1  6
 33 34  1  0
 33 35  1  0
 34 36  1  0
 35 37  1  0
 36 42  1  1
 20 21  2  0
 21 22  1  0
M  CHG  2   2  -1  26  -1
M  END
>  <COMPND>  (159) 
    8629 

>  <AUTHOR>  (159) 
    GENERATED BY OPEN BABEL 3.1.1

>  <MASTER>  (159) 
        0    0    0    0    0    0    0    0   58    0   58    0

>  <minimizedAffinity>  (159) 
-6.80706

>  <CNNscore>  (159) 
0.3052782714

>  <CNNaffinity>  (159) 
3.8632607460

>  <CNN_VS>  (159) 
1.1793695688

>  <CNNaffinity_variance>  (159) 
0.5823300481

$$$$
160
     RDKit          3D

 43 45  0  0  0  0  0  0  0  0999 V2000
   16.1164   69.9774   -4.1047 P   0  0  2  0  0  0  0  0  0  0  0  0
   17.2401   69.1268   -3.3103 O   0  0  0  0  0  0  0  0  0  0  0  0
   14.7715   70.0259   -3.4411 O   0  0  0  0  0  0  0  0  0  0  0  0
   16.1412   69.3544   -5.5977 O   0  0  0  0  0  0  0  0  0  0  0  0
   17.0551   69.8901   -6.5388 C   0  0  0  0  0  0  0  0  0  0  0  0
   15.1169   70.1969   -7.9255 O   0  0  0  0  0  0  0  0  0  0  0  0
   16.9800   69.9475  -10.2617 O   0  0  0  0  0  0  0  0  0  0  0  0
   16.6078   72.6431  -10.0834 O   0  0  0  0  0  0  0  0  0  0  0  0
   17.2036   70.5547   -8.9902 C   0  0  1  0  0  0  0  0  0  0  0  0
   16.4717   71.8777   -8.9034 C   0  0  2  0  0  0  0  0  0  0  0  0
   16.4809   69.7218   -7.9388 C   0  0  1  0  0  0  0  0  0  0  0  0
   15.0405   71.4305   -8.6584 C   0  0  2  0  0  0  0  0  0  0  0  0
   17.4324   70.4617  -10.9494 H   0  0  0  0  0  0  0  0  0  0  0  0
   17.5354   72.9034  -10.1949 H   0  0  0  0  0  0  0  0  0  0  0  0
   13.5000   73.5210   -9.7694 O   0  0  0  0  0  0  0  0  0  0  0  0
   12.2149   75.0315   -5.6091 O   0  0  0  0  0  0  0  0  0  0  0  0
   14.2928   72.3845   -7.8888 N   0  0  0  0  0  0  0  0  0  0  0  0
   12.8612   74.2713   -7.6970 N   0  0  0  0  0  0  0  0  0  0  0  0
   13.5527   73.3960   -8.5442 C   0  0  0  0  0  0  0  0  0  0  0  0
   14.2979   72.3112   -6.5001 C   0  0  0  0  0  0  0  0  0  0  0  0
   13.6342   73.1544   -5.7065 C   0  0  0  0  0  0  0  0  0  0  0  0
   12.8362   74.2402   -6.3117 C   0  0  0  0  0  0  0  0  0  0  0  0
   12.3390   74.9844   -8.1313 H   0  0  0  0  0  0  0  0  0  0  0  0
   16.8223   71.4184   -4.3005 O   0  0  0  0  0  0  0  0  0  0  0  0
   17.0944   72.6184   -3.2522 P   0  0  2  0  0  0  0  0  0  0  0  0
   15.9926   72.3582   -2.0964 O   0  0  0  0  0  0  0  0  0  0  0  0
   17.0421   73.9901   -3.8601 O   0  0  0  0  0  0  0  0  0  0  0  0
   18.5050   72.2459   -2.5621 O   0  0  0  0  0  0  0  0  0  0  0  0
   20.4213   73.3096   -3.4638 O   0  0  0  0  0  0  0  0  0  0  0  0
   22.2784   70.2944   -1.3400 O   0  0  0  0  0  0  0  0  0  0  0  0
   22.4224   72.9985   -0.3837 O   0  0  0  0  0  0  0  0  0  0  0  0
   19.7987   69.7617   -2.7354 O   0  0  0  0  0  0  0  0  0  0  0  0
   21.2765   71.2829   -1.5938 C   0  0  1  0  0  0  0  0  0  0  0  0
   21.9618   72.6477   -1.6856 C   0  0  1  0  0  0  0  0  0  0  0  0
   20.5661   70.9488   -2.9041 C   0  0  2  0  0  0  0  0  0  0  0  0
   20.9980   73.7169   -2.2176 C   0  0  1  0  0  0  0  0  0  0  0  0
   19.6699   72.0978   -3.3697 C   0  0  1  0  0  0  0  0  0  0  0  0
   22.7329   70.5004   -0.5091 H   0  0  0  0  0  0  0  0  0  0  0  0
   23.0297   72.3151   -0.0591 H   0  0  0  0  0  0  0  0  0  0  0  0
   20.3774   69.0418   -2.4409 H   0  0  0  0  0  0  0  0  0  0  0  0
   23.0195   74.7844   -2.9128 O   0  0  0  0  0  0  0  0  0  0  0  0
   21.7023   75.0489   -2.4662 C   0  0  0  0  0  0  0  0  0  0  0  0
   23.4797   75.6231   -3.0754 H   0  0  0  0  0  0  0  0  0  0  0  0
 25 28  1  0
 25 24  1  0
 25 26  1  1
 25 27  2  0
  1  4  1  0
  1 24  1  0
  1  2  1  1
  1  3  2  0
  6 11  1  0
  6 12  1  0
 29 36  1  0
 29 37  1  0
  9  7  1  6
  7 13  1  0
 10  8  1  6
  8 14  1  0
 37 28  1  1
  4  5  1  0
 33 30  1  6
 30 38  1  0
 34 31  1  1
 31 39  1  0
 35 32  1  1
 32 40  1  0
 41 42  1  0
 41 43  1  0
 15 19  2  0
 16 22  2  0
 12 17  1  1
 17 19  1  0
 17 20  1  0
 18 19  1  0
 18 22  1  0
 18 23  1  0
  9 10  1  0
  9 11  1  0
 10 12  1  0
 11  5  1  1
 33 34  1  0
 33 35  1  0
 34 36  1  0
 35 37  1  0
 36 42  1  6
 20 21  2  0
 21 22  1  0
M  CHG  2   2  -1  26  -1
M  END
>  <COMPND>  (160) 
    8629 

>  <AUTHOR>  (160) 
    GENERATED BY OPEN BABEL 3.1.1

>  <MASTER>  (160) 
        0    0    0    0    0    0    0    0   58    0   58    0

>  <minimizedAffinity>  (160) 
-6.61390

>  <CNNscore>  (160) 
0.3041068614

>  <CNNaffinity>  (160) 
3.9465591908

>  <CNN_VS>  (160) 
1.2001757622

>  <CNNaffinity_variance>  (160) 
0.1862392724

$$$$
161
     RDKit          3D

 43 45  0  0  0  0  0  0  0  0999 V2000
   18.8587   73.8491   -7.7994 P   0  0  2  0  0  0  0  0  0  0  0  0
   17.3612   73.6330   -7.2263 O   0  0  0  0  0  0  0  0  0  0  0  0
   19.1799   75.2532   -8.2198 O   0  0  0  0  0  0  0  0  0  0  0  0
   19.0005   72.7211   -8.9506 O   0  0  0  0  0  0  0  0  0  0  0  0
   19.7579   71.5575   -8.6675 C   0  0  0  0  0  0  0  0  0  0  0  0
   18.8387   69.4172   -8.0776 O   0  0  0  0  0  0  0  0  0  0  0  0
   17.2027   69.6393  -10.5806 O   0  0  0  0  0  0  0  0  0  0  0  0
   15.4171   70.3331   -8.6399 O   0  0  0  0  0  0  0  0  0  0  0  0
   17.5964   70.6614   -9.6665 C   0  0  1  0  0  0  0  0  0  0  0  0
   16.7884   70.5642   -8.3893 C   0  0  2  0  0  0  0  0  0  0  0  0
   19.0030   70.3380   -9.1783 C   0  0  1  0  0  0  0  0  0  0  0  0
   17.4578   69.3988   -7.6808 C   0  0  2  0  0  0  0  0  0  0  0  0
   16.3074   69.8244  -10.9063 H   0  0  0  0  0  0  0  0  0  0  0  0
   15.0366   71.1025   -9.0916 H   0  0  0  0  0  0  0  0  0  0  0  0
   15.1804   68.7355   -6.1474 O   0  0  0  0  0  0  0  0  0  0  0  0
   17.2800   69.8673   -2.2038 O   0  0  0  0  0  0  0  0  0  0  0  0
   17.3818   69.5101   -6.2514 N   0  0  0  0  0  0  0  0  0  0  0  0
   16.2277   69.2994   -4.1850 N   0  0  0  0  0  0  0  0  0  0  0  0
   16.1910   69.1520   -5.5775 C   0  0  0  0  0  0  0  0  0  0  0  0
   18.4801   69.9698   -5.5328 C   0  0  0  0  0  0  0  0  0  0  0  0
   18.4985   70.1058   -4.2053 C   0  0  0  0  0  0  0  0  0  0  0  0
   17.2945   69.7532   -3.4255 C   0  0  0  0  0  0  0  0  0  0  0  0
   15.4092   69.0563   -3.6943 H   0  0  0  0  0  0  0  0  0  0  0  0
   19.7896   73.2733   -6.6099 O   0  0  0  0  0  0  0  0  0  0  0  0
   21.1997   73.7965   -6.0177 P   0  0  2  0  0  0  0  0  0  0  0  0
   20.9125   75.3565   -5.6991 O   0  0  0  0  0  0  0  0  0  0  0  0
   22.3742   73.5550   -6.9212 O   0  0  0  0  0  0  0  0  0  0  0  0
   21.3174   73.0992   -4.5669 O   0  0  0  0  0  0  0  0  0  0  0  0
   23.4071   73.9370   -3.8266 O   0  0  0  0  0  0  0  0  0  0  0  0
   22.2042   72.0194   -0.3731 O   0  0  0  0  0  0  0  0  0  0  0  0
   22.1876   74.8893   -0.4808 O   0  0  0  0  0  0  0  0  0  0  0  0
   21.6530   70.8280   -2.9531 O   0  0  0  0  0  0  0  0  0  0  0  0
   22.0238   72.7698   -1.5771 C   0  0  1  0  0  0  0  0  0  0  0  0
   22.8233   74.0687   -1.4570 C   0  0  1  0  0  0  0  0  0  0  0  0
   22.5193   71.9411   -2.7608 C   0  0  2  0  0  0  0  0  0  0  0  0
   22.8971   74.8004   -2.8039 C   0  0  1  0  0  0  0  0  0  0  0  0
   22.6016   72.7761   -4.0399 C   0  0  1  0  0  0  0  0  0  0  0  0
   21.8911   72.5398    0.3823 H   0  0  0  0  0  0  0  0  0  0  0  0
   22.1470   74.4154    0.3648 H   0  0  0  0  0  0  0  0  0  0  0  0
   21.6096   70.3073   -2.1365 H   0  0  0  0  0  0  0  0  0  0  0  0
   24.8923   75.8097   -3.6460 O   0  0  0  0  0  0  0  0  0  0  0  0
   23.8201   76.0156   -2.7448 C   0  0  0  0  0  0  0  0  0  0  0  0
   25.4879   76.5754   -3.6194 H   0  0  0  0  0  0  0  0  0  0  0  0
 25 28  1  0
 25 24  1  0
 25 26  1  1
 25 27  2  0
  1  4  1  0
  1 24  1  0
  1  2  1  1
  1  3  2  0
  6 11  1  0
  6 12  1  0
 29 36  1  0
 29 37  1  0
  9  7  1  6
  7 13  1  0
 10  8  1  6
  8 14  1  0
 37 28  1  1
  4  5  1  0
 33 30  1  1
 30 38  1  0
 34 31  1  1
 31 39  1  0
 35 32  1  6
 32 40  1  0
 41 42  1  0
 41 43  1  0
 15 19  2  0
 16 22  2  0
 12 17  1  1
 17 19  1  0
 17 20  1  0
 18 19  1  0
 18 22  1  0
 18 23  1  0
  9 10  1  0
  9 11  1  0
 10 12  1  0
 11  5  1  1
 33 34  1  0
 33 35  1  0
 34 36  1  0
 35 37  1  0
 36 42  1  1
 20 21  2  0
 21 22  1  0
M  CHG  2   2  -1  26  -1
M  END
>  <COMPND>  (161) 
    8629 

>  <AUTHOR>  (161) 
    GENERATED BY OPEN BABEL 3.1.1

>  <MASTER>  (161) 
        0    0    0    0    0    0    0    0   58    0   58    0

>  <minimizedAffinity>  (161) 
-8.05012

>  <CNNscore>  (161) 
0.7965872288

>  <CNNaffinity>  (161) 
4.6684136391

>  <CNN_VS>  (161) 
3.7187986374

>  <CNNaffinity_variance>  (161) 
0.3839558065

$$$$
162
     RDKit          3D

 43 45  0  0  0  0  0  0  0  0999 V2000
   18.8209   73.8243   -7.9076 P   0  0  2  0  0  0  0  0  0  0  0  0
   17.4826   73.4008   -7.1032 O   0  0  0  0  0  0  0  0  0  0  0  0
   18.8341   75.2355   -8.4173 O   0  0  0  0  0  0  0  0  0  0  0  0
   18.9809   72.6702   -9.0302 O   0  0  0  0  0  0  0  0  0  0  0  0
   19.7026   71.4974   -8.6961 C   0  0  0  0  0  0  0  0  0  0  0  0
   18.7627   69.3673   -8.1020 O   0  0  0  0  0  0  0  0  0  0  0  0
   17.1355   69.5960  -10.6101 O   0  0  0  0  0  0  0  0  0  0  0  0
   15.3509   70.3119   -8.6764 O   0  0  0  0  0  0  0  0  0  0  0  0
   17.5358   70.6174   -9.6981 C   0  0  1  0  0  0  0  0  0  0  0  0
   16.7235   70.5315   -8.4228 C   0  0  2  0  0  0  0  0  0  0  0  0
   18.9382   70.2830   -9.2052 C   0  0  1  0  0  0  0  0  0  0  0  0
   17.3806   69.3625   -7.7089 C   0  0  2  0  0  0  0  0  0  0  0  0
   16.2427   69.7880  -10.9388 H   0  0  0  0  0  0  0  0  0  0  0  0
   14.9785   71.0832   -9.1316 H   0  0  0  0  0  0  0  0  0  0  0  0
   15.0624   68.8203   -6.1890 O   0  0  0  0  0  0  0  0  0  0  0  0
   17.1939   69.8452   -2.2333 O   0  0  0  0  0  0  0  0  0  0  0  0
   17.3018   69.4791   -6.2800 N   0  0  0  0  0  0  0  0  0  0  0  0
   16.1257   69.3309   -4.2206 N   0  0  0  0  0  0  0  0  0  0  0  0
   16.0899   69.1841   -5.6132 C   0  0  0  0  0  0  0  0  0  0  0  0
   18.4181   69.8816   -5.5550 C   0  0  0  0  0  0  0  0  0  0  0  0
   18.4354   70.0179   -4.2274 C   0  0  0  0  0  0  0  0  0  0  0  0
   17.2099   69.7293   -3.4549 C   0  0  0  0  0  0  0  0  0  0  0  0
   15.2926   69.1312   -3.7348 H   0  0  0  0  0  0  0  0  0  0  0  0
   20.0007   73.4769   -6.8586 O   0  0  0  0  0  0  0  0  0  0  0  0
   21.4344   74.1784   -6.6029 P   0  0  2  0  0  0  0  0  0  0  0  0
   21.0764   75.7560   -6.5784 O   0  0  0  0  0  0  0  0  0  0  0  0
   22.4916   73.7986   -7.5989 O   0  0  0  0  0  0  0  0  0  0  0  0
   21.7978   73.8190   -5.0720 O   0  0  0  0  0  0  0  0  0  0  0  0
   20.7405   72.2303   -3.6667 O   0  0  0  0  0  0  0  0  0  0  0  0
   21.7985   75.0283   -0.8202 O   0  0  0  0  0  0  0  0  0  0  0  0
   23.2126   72.5319   -0.9489 O   0  0  0  0  0  0  0  0  0  0  0  0
   20.8761   75.8947   -3.4236 O   0  0  0  0  0  0  0  0  0  0  0  0
   21.9579   74.2645   -2.0188 C   0  0  1  0  0  0  0  0  0  0  0  0
   21.9929   72.7822   -1.6418 C   0  0  1  0  0  0  0  0  0  0  0  0
   20.7857   74.5538   -2.9545 C   0  0  2  0  0  0  0  0  0  0  0  0
   21.8935   71.8913   -2.8874 C   0  0  1  0  0  0  0  0  0  0  0  0
   20.7513   73.5805   -4.1343 C   0  0  1  0  0  0  0  0  0  0  0  0
   22.5399   74.8496   -0.2218 H   0  0  0  0  0  0  0  0  0  0  0  0
   23.2632   73.1011   -0.1649 H   0  0  0  0  0  0  0  0  0  0  0  0
   20.8968   76.5010   -2.6674 H   0  0  0  0  0  0  0  0  0  0  0  0
   21.8656   70.2856   -1.1182 O   0  0  0  0  0  0  0  0  0  0  0  0
   21.7679   70.4131   -2.5248 C   0  0  0  0  0  0  0  0  0  0  0  0
   21.7871   69.3500   -0.8728 H   0  0  0  0  0  0  0  0  0  0  0  0
 25 28  1  0
 25 24  1  0
 25 26  1  1
 25 27  2  0
  1  4  1  0
  1 24  1  0
  1  2  1  1
  1  3  2  0
  6 11  1  0
  6 12  1  0
 29 36  1  0
 29 37  1  0
  9  7  1  6
  7 13  1  0
 10  8  1  6
  8 14  1  0
 37 28  1  6
  4  5  1  0
 33 30  1  1
 30 38  1  0
 34 31  1  6
 31 39  1  0
 35 32  1  6
 32 40  1  0
 41 42  1  0
 41 43  1  0
 15 19  2  0
 16 22  2  0
 12 17  1  1
 17 19  1  0
 17 20  1  0
 18 19  1  0
 18 22  1  0
 18 23  1  0
  9 10  1  0
  9 11  1  0
 10 12  1  0
 11  5  1  1
 33 34  1  0
 33 35  1  0
 34 36  1  0
 35 37  1  0
 36 42  1  1
 20 21  2  0
 21 22  1  0
M  CHG  2   2  -1  26  -1
M  END
>  <COMPND>  (162) 
    8629 

>  <AUTHOR>  (162) 
    GENERATED BY OPEN BABEL 3.1.1

>  <MASTER>  (162) 
        0    0    0    0    0    0    0    0   58    0   58    0

>  <minimizedAffinity>  (162) 
-8.22795

>  <CNNscore>  (162) 
0.7090087533

>  <CNNaffinity>  (162) 
4.4805564880

>  <CNN_VS>  (162) 
3.1767537594

>  <CNNaffinity_variance>  (162) 
0.7618208528

$$$$
163
     RDKit          3D

 43 45  0  0  0  0  0  0  0  0999 V2000
   19.3781   73.7067   -7.5182 P   0  0  2  0  0  0  0  0  0  0  0  0
   18.1828   73.2737   -6.5177 O   0  0  0  0  0  0  0  0  0  0  0  0
   19.3886   75.1570   -7.9028 O   0  0  0  0  0  0  0  0  0  0  0  0
   19.2594   72.6559   -8.7428 O   0  0  0  0  0  0  0  0  0  0  0  0
   20.0276   71.4664   -8.6899 C   0  0  0  0  0  0  0  0  0  0  0  0
   18.9518   69.3822   -8.1678 O   0  0  0  0  0  0  0  0  0  0  0  0
   17.3768   69.7788  -10.6884 O   0  0  0  0  0  0  0  0  0  0  0  0
   15.6121   70.5491   -8.7573 O   0  0  0  0  0  0  0  0  0  0  0  0
   17.8257   70.7484   -9.7430 C   0  0  1  0  0  0  0  0  0  0  0  0
   16.9919   70.6774   -8.4808 C   0  0  2  0  0  0  0  0  0  0  0  0
   19.1980   70.3155   -9.2424 C   0  0  1  0  0  0  0  0  0  0  0  0
   17.5666   69.4512   -7.7921 C   0  0  2  0  0  0  0  0  0  0  0  0
   16.5021   70.0340  -11.0225 H   0  0  0  0  0  0  0  0  0  0  0  0
   15.2937   71.3539   -9.1951 H   0  0  0  0  0  0  0  0  0  0  0  0
   15.2281   68.8959   -6.3084 O   0  0  0  0  0  0  0  0  0  0  0  0
   17.3312   69.7997   -2.3083 O   0  0  0  0  0  0  0  0  0  0  0  0
   17.4749   69.5330   -6.3616 N   0  0  0  0  0  0  0  0  0  0  0  0
   16.2772   69.3462   -4.3179 N   0  0  0  0  0  0  0  0  0  0  0  0
   16.2536   69.2345   -5.7139 C   0  0  0  0  0  0  0  0  0  0  0  0
   18.5882   69.9056   -5.6161 C   0  0  0  0  0  0  0  0  0  0  0  0
   18.5939   70.0087   -4.2855 C   0  0  0  0  0  0  0  0  0  0  0  0
   17.3580   69.7139   -3.5321 C   0  0  0  0  0  0  0  0  0  0  0  0
   15.4374   69.1434   -3.8452 H   0  0  0  0  0  0  0  0  0  0  0  0
   20.7034   73.2079   -6.7386 O   0  0  0  0  0  0  0  0  0  0  0  0
   21.5988   73.9259   -5.6003 P   0  0  2  0  0  0  0  0  0  0  0  0
   22.2886   75.1565   -6.3922 O   0  0  0  0  0  0  0  0  0  0  0  0
   22.5695   73.0102   -4.9125 O   0  0  0  0  0  0  0  0  0  0  0  0
   20.5262   74.6241   -4.6169 O   0  0  0  0  0  0  0  0  0  0  0  0
   20.9941   76.3718   -3.0861 O   0  0  0  0  0  0  0  0  0  0  0  0
   17.8802   74.5506   -1.0766 O   0  0  0  0  0  0  0  0  0  0  0  0
   17.4542   77.0896   -2.3493 O   0  0  0  0  0  0  0  0  0  0  0  0
   19.8295   72.9385   -2.4841 O   0  0  0  0  0  0  0  0  0  0  0  0
   18.6056   74.9968   -2.2256 C   0  0  1  0  0  0  0  0  0  0  0  0
   18.7434   76.5184   -2.1445 C   0  0  1  0  0  0  0  0  0  0  0  0
   19.9810   74.3322   -2.2367 C   0  0  2  0  0  0  0  0  0  0  0  0
   19.7327   77.0417   -3.1946 C   0  0  1  0  0  0  0  0  0  0  0  0
   20.9029   74.9595   -3.2839 C   0  0  1  0  0  0  0  0  0  0  0  0
   17.0058   74.9685   -1.0638 H   0  0  0  0  0  0  0  0  0  0  0  0
   16.8390   76.7506   -1.6801 H   0  0  0  0  0  0  0  0  0  0  0  0
   19.2441   72.5531   -1.8144 H   0  0  0  0  0  0  0  0  0  0  0  0
   19.6636   78.9109   -1.7078 O   0  0  0  0  0  0  0  0  0  0  0  0
   20.0052   78.5352   -3.0294 C   0  0  0  0  0  0  0  0  0  0  0  0
   19.8321   79.8590   -1.5880 H   0  0  0  0  0  0  0  0  0  0  0  0
 25 28  1  0
 25 24  1  0
 25 26  1  6
 25 27  2  0
  1  4  1  0
  1 24  1  0
  1  2  1  1
  1  3  2  0
  6 11  1  0
  6 12  1  0
 29 36  1  0
 29 37  1  0
  9  7  1  6
  7 13  1  0
 10  8  1  6
  8 14  1  0
 37 28  1  6
  4  5  1  0
 33 30  1  1
 30 38  1  0
 34 31  1  6
 31 39  1  0
 35 32  1  6
 32 40  1  0
 41 42  1  0
 41 43  1  0
 15 19  2  0
 16 22  2  0
 12 17  1  1
 17 19  1  0
 17 20  1  0
 18 19  1  0
 18 22  1  0
 18 23  1  0
  9 10  1  0
  9 11  1  0
 10 12  1  0
 11  5  1  1
 33 34  1  0
 33 35  1  0
 34 36  1  0
 35 37  1  0
 36 42  1  1
 20 21  2  0
 21 22  1  0
M  CHG  2   2  -1  26  -1
M  END
>  <COMPND>  (163) 
    8629 

>  <AUTHOR>  (163) 
    GENERATED BY OPEN BABEL 3.1.1

>  <MASTER>  (163) 
        0    0    0    0    0    0    0    0   58    0   58    0

>  <minimizedAffinity>  (163) 
-6.51800

>  <CNNscore>  (163) 
0.6966779232

>  <CNNaffinity>  (163) 
4.2835330963

>  <CNN_VS>  (163) 
2.9842429161

>  <CNNaffinity_variance>  (163) 
0.2024603784

$$$$
164
     RDKit          3D

 43 45  0  0  0  0  0  0  0  0999 V2000
   19.8547   72.5077   -3.4657 P   0  0  2  0  0  0  0  0  0  0  0  0
   20.3851   73.9408   -3.9969 O   0  0  0  0  0  0  0  0  0  0  0  0
   20.0593   71.3644   -4.4157 O   0  0  0  0  0  0  0  0  0  0  0  0
   18.3225   72.7965   -3.0335 O   0  0  0  0  0  0  0  0  0  0  0  0
   17.3794   73.0978   -4.0471 C   0  0  0  0  0  0  0  0  0  0  0  0
   15.6735   71.8767   -5.2187 O   0  0  0  0  0  0  0  0  0  0  0  0
   15.3405   70.2892   -2.6968 O   0  0  0  0  0  0  0  0  0  0  0  0
   16.8382   68.6248   -4.2535 O   0  0  0  0  0  0  0  0  0  0  0  0
   16.5290   70.8282   -3.2733 C   0  0  1  0  0  0  0  0  0  0  0  0
   16.9423   70.0154   -4.4824 C   0  0  2  0  0  0  0  0  0  0  0  0
   16.1792   72.1729   -3.8985 C   0  0  1  0  0  0  0  0  0  0  0  0
   15.9699   70.5081   -5.5407 C   0  0  2  0  0  0  0  0  0  0  0  0
   15.5391   69.4303   -2.2909 H   0  0  0  0  0  0  0  0  0  0  0  0
   17.4765   68.3604   -3.5728 H   0  0  0  0  0  0  0  0  0  0  0  0
   14.4415   70.2495   -7.9018 O   0  0  0  0  0  0  0  0  0  0  0  0
   18.2054   70.2939  -10.5612 O   0  0  0  0  0  0  0  0  0  0  0  0
   16.5246   70.4499   -6.8637 N   0  0  0  0  0  0  0  0  0  0  0  0
   16.3169   70.2720   -9.2241 N   0  0  0  0  0  0  0  0  0  0  0  0
   15.6697   70.3183   -7.9827 C   0  0  0  0  0  0  0  0  0  0  0  0
   17.9019   70.5235   -7.0415 C   0  0  0  0  0  0  0  0  0  0  0  0
   18.5034   70.4766   -8.2320 C   0  0  0  0  0  0  0  0  0  0  0  0
   17.6822   70.3400   -9.4522 C   0  0  0  0  0  0  0  0  0  0  0  0
   15.7415   70.1802  -10.0180 H   0  0  0  0  0  0  0  0  0  0  0  0
   20.6085   72.3450   -2.0450 O   0  0  0  0  0  0  0  0  0  0  0  0
   22.0134   71.6427   -1.6630 P   0  0  2  0  0  0  0  0  0  0  0  0
   22.9303   71.9130   -2.9683 O   0  0  0  0  0  0  0  0  0  0  0  0
   21.8940   70.1964   -1.2788 O   0  0  0  0  0  0  0  0  0  0  0  0
   22.6451   72.5889   -0.5182 O   0  0  0  0  0  0  0  0  0  0  0  0
   21.9780   73.9920    1.2715 O   0  0  0  0  0  0  0  0  0  0  0  0
   24.2695   76.6859   -0.8600 O   0  0  0  0  0  0  0  0  0  0  0  0
   25.2628   75.6286    1.6187 O   0  0  0  0  0  0  0  0  0  0  0  0
   22.5956   74.7862   -2.2631 O   0  0  0  0  0  0  0  0  0  0  0  0
   23.9131   75.4010   -0.3428 C   0  0  1  0  0  0  0  0  0  0  0  0
   23.9134   75.4820    1.1850 C   0  0  1  0  0  0  0  0  0  0  0  0
   22.5271   75.0213   -0.8608 C   0  0  2  0  0  0  0  0  0  0  0  0
   23.2858   74.2270    1.8064 C   0  0  1  0  0  0  0  0  0  0  0  0
   21.9739   73.7889   -0.1430 C   0  0  1  0  0  0  0  0  0  0  0  0
   25.1488   76.9327   -0.5352 H   0  0  0  0  0  0  0  0  0  0  0  0
   25.6476   76.4244    1.2188 H   0  0  0  0  0  0  0  0  0  0  0  0
   22.9470   75.5737   -2.7061 H   0  0  0  0  0  0  0  0  0  0  0  0
   24.4029   74.1738    3.9179 O   0  0  0  0  0  0  0  0  0  0  0  0
   23.1321   74.3542    3.3205 C   0  0  0  0  0  0  0  0  0  0  0  0
   24.3206   74.2524    4.8816 H   0  0  0  0  0  0  0  0  0  0  0  0
 25 28  1  0
 25 24  1  0
 25 26  1  6
 25 27  2  0
  1  4  1  0
  1 24  1  0
  1  2  1  6
  1  3  2  0
  6 11  1  0
  6 12  1  0
 29 36  1  0
 29 37  1  0
  9  7  1  6
  7 13  1  0
 10  8  1  1
  8 14  1  0
 37 28  1  1
  4  5  1  0
 33 30  1  6
 30 38  1  0
 34 31  1  1
 31 39  1  0
 35 32  1  6
 32 40  1  0
 41 42  1  0
 41 43  1  0
 15 19  2  0
 16 22  2  0
 12 17  1  6
 17 19  1  0
 17 20  1  0
 18 19  1  0
 18 22  1  0
 18 23  1  0
  9 10  1  0
  9 11  1  0
 10 12  1  0
 11  5  1  6
 33 34  1  0
 33 35  1  0
 34 36  1  0
 35 37  1  0
 36 42  1  1
 20 21  2  0
 21 22  1  0
M  CHG  2   2  -1  26  -1
M  END
>  <COMPND>  (164) 
    8629 

>  <AUTHOR>  (164) 
    GENERATED BY OPEN BABEL 3.1.1

>  <MASTER>  (164) 
        0    0    0    0    0    0    0    0   58    0   58    0

>  <minimizedAffinity>  (164) 
-7.31220

>  <CNNscore>  (164) 
0.6702134013

>  <CNNaffinity>  (164) 
4.3141460419

>  <CNN_VS>  (164) 
2.8913984299

>  <CNNaffinity_variance>  (164) 
0.0769539401

$$$$
165
     RDKit          3D

 43 45  0  0  0  0  0  0  0  0999 V2000
   18.3284   73.7869   -7.2996 P   0  0  2  0  0  0  0  0  0  0  0  0
   16.8033   74.1212   -7.7234 O   0  0  0  0  0  0  0  0  0  0  0  0
   19.2706   74.9536   -7.3508 O   0  0  0  0  0  0  0  0  0  0  0  0
   18.7225   72.5241   -8.2311 O   0  0  0  0  0  0  0  0  0  0  0  0
   19.0723   71.3033   -7.6024 C   0  0  0  0  0  0  0  0  0  0  0  0
   17.7457   69.3222   -7.3031 O   0  0  0  0  0  0  0  0  0  0  0  0
   16.9979   69.6126  -10.1923 O   0  0  0  0  0  0  0  0  0  0  0  0
   14.8105   70.6144   -8.9085 O   0  0  0  0  0  0  0  0  0  0  0  0
   17.2227   70.6249   -9.2124 C   0  0  1  0  0  0  0  0  0  0  0  0
   16.0572   70.6909   -8.2477 C   0  0  2  0  0  0  0  0  0  0  0  0
   18.3576   70.1593   -8.3087 C   0  0  1  0  0  0  0  0  0  0  0  0
   16.3196   69.4908   -7.3538 C   0  0  2  0  0  0  0  0  0  0  0  0
   16.2774   69.8876  -10.7815 H   0  0  0  0  0  0  0  0  0  0  0  0
   14.6903   71.4002   -9.4644 H   0  0  0  0  0  0  0  0  0  0  0  0
   13.6449   69.0438   -6.5637 O   0  0  0  0  0  0  0  0  0  0  0  0
   14.5352   70.2623   -2.2090 O   0  0  0  0  0  0  0  0  0  0  0  0
   15.8250   69.6829   -6.0197 N   0  0  0  0  0  0  0  0  0  0  0  0
   14.0904   69.6507   -4.3960 N   0  0  0  0  0  0  0  0  0  0  0  0
   14.4642   69.4311   -5.7279 C   0  0  0  0  0  0  0  0  0  0  0  0
   16.6859   70.1161   -5.0172 C   0  0  0  0  0  0  0  0  0  0  0  0
   16.3135   70.3220   -3.7522 C   0  0  0  0  0  0  0  0  0  0  0  0
   14.9086   70.0821   -3.3639 C   0  0  0  0  0  0  0  0  0  0  0  0
   13.1470   69.4821   -4.1694 H   0  0  0  0  0  0  0  0  0  0  0  0
   18.1613   73.1209   -5.8362 O   0  0  0  0  0  0  0  0  0  0  0  0
   18.2089   73.7769   -4.3596 P   0  0  2  0  0  0  0  0  0  0  0  0
   16.6683   73.7039   -3.8713 O   0  0  0  0  0  0  0  0  0  0  0  0
   18.8077   75.1529   -4.3166 O   0  0  0  0  0  0  0  0  0  0  0  0
   18.9764   72.6849   -3.4520 O   0  0  0  0  0  0  0  0  0  0  0  0
   21.1517   72.8104   -4.3842 O   0  0  0  0  0  0  0  0  0  0  0  0
   21.9590   70.3722   -1.1509 O   0  0  0  0  0  0  0  0  0  0  0  0
   22.8626   73.0982   -1.1317 O   0  0  0  0  0  0  0  0  0  0  0  0
   19.4830   70.0543   -2.6165 O   0  0  0  0  0  0  0  0  0  0  0  0
   21.3037   71.4330   -1.8513 C   0  0  1  0  0  0  0  0  0  0  0  0
   22.3647   72.4423   -2.2945 C   0  0  1  0  0  0  0  0  0  0  0  0
   20.5725   70.8552   -3.0616 C   0  0  2  0  0  0  0  0  0  0  0  0
   21.7792   73.4664   -3.2762 C   0  0  1  0  0  0  0  0  0  0  0  0
   20.0728   71.9565   -3.9984 C   0  0  1  0  0  0  0  0  0  0  0  0
   22.4249   70.7323   -0.3810 H   0  0  0  0  0  0  0  0  0  0  0  0
   23.2290   72.4404   -0.5199 H   0  0  0  0  0  0  0  0  0  0  0  0
   19.8124   69.3607   -2.0245 H   0  0  0  0  0  0  0  0  0  0  0  0
   23.8708   73.5840   -4.4252 O   0  0  0  0  0  0  0  0  0  0  0  0
   22.8540   74.3855   -3.8525 C   0  0  0  0  0  0  0  0  0  0  0  0
   24.5617   74.1556   -4.7963 H   0  0  0  0  0  0  0  0  0  0  0  0
 25 28  1  0
 25 24  1  0
 25 26  1  1
 25 27  2  0
  1  4  1  0
  1 24  1  0
  1  2  1  6
  1  3  2  0
  6 11  1  0
  6 12  1  0
 29 36  1  0
 29 37  1  0
  9  7  1  6
  7 13  1  0
 10  8  1  6
  8 14  1  0
 37 28  1  1
  4  5  1  0
 33 30  1  6
 30 38  1  0
 34 31  1  1
 31 39  1  0
 35 32  1  1
 32 40  1  0
 41 42  1  0
 41 43  1  0
 15 19  2  0
 16 22  2  0
 12 17  1  1
 17 19  1  0
 17 20  1  0
 18 19  1  0
 18 22  1  0
 18 23  1  0
  9 10  1  0
  9 11  1  0
 10 12  1  0
 11  5  1  1
 33 34  1  0
 33 35  1  0
 34 36  1  0
 35 37  1  0
 36 42  1  6
 20 21  2  0
 21 22  1  0
M  CHG  2   2  -1  26  -1
M  END
>  <COMPND>  (165) 
    8629 

>  <AUTHOR>  (165) 
    GENERATED BY OPEN BABEL 3.1.1

>  <MASTER>  (165) 
        0    0    0    0    0    0    0    0   58    0   58    0

>  <minimizedAffinity>  (165) 
-7.73951

>  <CNNscore>  (165) 
0.6104140878

>  <CNNaffinity>  (165) 
4.4297409058

>  <CNN_VS>  (165) 
2.7039761543

>  <CNNaffinity_variance>  (165) 
0.5136758089

$$$$
166
     RDKit          3D

 43 45  0  0  0  0  0  0  0  0999 V2000
   21.4479   71.5055   -2.1434 P   0  0  2  0  0  0  0  0  0  0  0  0
   22.7781   72.3319   -2.5499 O   0  0  0  0  0  0  0  0  0  0  0  0
   21.7007   70.1606   -1.5281 O   0  0  0  0  0  0  0  0  0  0  0  0
   20.5629   71.5035   -3.4979 O   0  0  0  0  0  0  0  0  0  0  0  0
   19.6632   70.4307   -3.7160 C   0  0  0  0  0  0  0  0  0  0  0  0
   17.7278   71.4837   -4.6748 O   0  0  0  0  0  0  0  0  0  0  0  0
   16.1981   70.3604   -2.3534 O   0  0  0  0  0  0  0  0  0  0  0  0
   15.5804   68.6277   -4.3665 O   0  0  0  0  0  0  0  0  0  0  0  0
   17.2852   69.7886   -3.0791 C   0  0  1  0  0  0  0  0  0  0  0  0
   16.8164   69.3089   -4.4369 C   0  0  2  0  0  0  0  0  0  0  0  0
   18.2434   70.9129   -3.4522 C   0  0  1  0  0  0  0  0  0  0  0  0
   16.7234   70.6100   -5.2158 C   0  0  2  0  0  0  0  0  0  0  0  0
   15.5729   69.6613   -2.1038 H   0  0  0  0  0  0  0  0  0  0  0  0
   15.6916   67.8072   -3.8615 H   0  0  0  0  0  0  0  0  0  0  0  0
   14.7178   70.6263   -7.2046 O   0  0  0  0  0  0  0  0  0  0  0  0
   17.7872   69.8986  -10.5648 O   0  0  0  0  0  0  0  0  0  0  0  0
   16.9704   70.4276   -6.6183 N   0  0  0  0  0  0  0  0  0  0  0  0
   16.2478   70.2642   -8.8761 N   0  0  0  0  0  0  0  0  0  0  0  0
   15.8928   70.4521   -7.5342 C   0  0  0  0  0  0  0  0  0  0  0  0
   18.2693   70.2276   -7.0730 C   0  0  0  0  0  0  0  0  0  0  0  0
   18.5909   70.0487   -8.3559 C   0  0  0  0  0  0  0  0  0  0  0  0
   17.5237   70.0603   -9.3772 C   0  0  0  0  0  0  0  0  0  0  0  0
   15.5135   70.2769   -9.5322 H   0  0  0  0  0  0  0  0  0  0  0  0
   20.6529   72.5422   -1.1914 O   0  0  0  0  0  0  0  0  0  0  0  0
   20.4088   74.1344   -1.3265 P   0  0  2  0  0  0  0  0  0  0  0  0
   18.8097   74.2825   -1.1307 O   0  0  0  0  0  0  0  0  0  0  0  0
   20.9347   74.7317   -2.5995 O   0  0  0  0  0  0  0  0  0  0  0  0
   21.0440   74.7606    0.0186 O   0  0  0  0  0  0  0  0  0  0  0  0
   23.4058   74.5650    0.0012 O   0  0  0  0  0  0  0  0  0  0  0  0
   22.8822   75.8934    3.8757 O   0  0  0  0  0  0  0  0  0  0  0  0
   23.9843   77.6682    1.9050 O   0  0  0  0  0  0  0  0  0  0  0  0
   20.9996   74.0197    2.7249 O   0  0  0  0  0  0  0  0  0  0  0  0
   22.5941   75.8079    2.4775 C   0  0  1  0  0  0  0  0  0  0  0  0
   23.8321   76.2658    1.7039 C   0  0  1  0  0  0  0  0  0  0  0  0
   22.2452   74.3626    2.1272 C   0  0  2  0  0  0  0  0  0  0  0  0
   23.6977   75.9520    0.2077 C   0  0  1  0  0  0  0  0  0  0  0  0
   22.1844   74.1471    0.6139 C   0  0  1  0  0  0  0  0  0  0  0  0
   23.1041   76.8087    4.1049 H   0  0  0  0  0  0  0  0  0  0  0  0
   24.0676   77.8528    2.8538 H   0  0  0  0  0  0  0  0  0  0  0  0
   21.0512   74.1601    3.6828 H   0  0  0  0  0  0  0  0  0  0  0  0
   26.0580   76.2895    0.3631 O   0  0  0  0  0  0  0  0  0  0  0  0
   24.9835   76.2560   -0.5581 C   0  0  0  0  0  0  0  0  0  0  0  0
   26.8831   76.4817   -0.1102 H   0  0  0  0  0  0  0  0  0  0  0  0
 25 28  1  0
 25 24  1  0
 25 26  1  1
 25 27  2  0
  1  4  1  0
  1 24  1  0
  1  2  1  6
  1  3  2  0
  6 11  1  0
  6 12  1  0
 29 36  1  0
 29 37  1  0
  9  7  1  1
  7 13  1  0
 10  8  1  1
  8 14  1  0
 37 28  1  6
  4  5  1  0
 33 30  1  1
 30 38  1  0
 34 31  1  6
 31 39  1  0
 35 32  1  1
 32 40  1  0
 41 42  1  0
 41 43  1  0
 15 19  2  0
 16 22  2  0
 12 17  1  6
 17 19  1  0
 17 20  1  0
 18 19  1  0
 18 22  1  0
 18 23  1  0
  9 10  1  0
  9 11  1  0
 10 12  1  0
 11  5  1  6
 33 34  1  0
 33 35  1  0
 34 36  1  0
 35 37  1  0
 36 42  1  6
 20 21  2  0
 21 22  1  0
M  CHG  2   2  -1  26  -1
M  END
>  <COMPND>  (166) 
    8629 

>  <AUTHOR>  (166) 
    GENERATED BY OPEN BABEL 3.1.1

>  <MASTER>  (166) 
        0    0    0    0    0    0    0    0   58    0   58    0

>  <minimizedAffinity>  (166) 
-7.15275

>  <CNNscore>  (166) 
0.5952968001

>  <CNNaffinity>  (166) 
4.3775353432

>  <CNN_VS>  (166) 
2.6059327126

>  <CNNaffinity_variance>  (166) 
0.0772127882

$$$$
167
     RDKit          3D

 43 45  0  0  0  0  0  0  0  0999 V2000
   21.4709   71.3876   -2.3648 P   0  0  2  0  0  0  0  0  0  0  0  0
   22.8138   72.0580   -2.9686 O   0  0  0  0  0  0  0  0  0  0  0  0
   21.6995   70.1990   -1.4780 O   0  0  0  0  0  0  0  0  0  0  0  0
   20.5482   71.1251   -3.6677 O   0  0  0  0  0  0  0  0  0  0  0  0
   19.5510   70.1207   -3.5988 C   0  0  0  0  0  0  0  0  0  0  0  0
   17.7881   71.4381   -4.5633 O   0  0  0  0  0  0  0  0  0  0  0  0
   16.0809   70.4747   -2.2944 O   0  0  0  0  0  0  0  0  0  0  0  0
   15.2813   68.8815   -4.3580 O   0  0  0  0  0  0  0  0  0  0  0  0
   17.0978   69.7814   -3.0159 C   0  0  1  0  0  0  0  0  0  0  0  0
   16.5967   69.3966   -4.3922 C   0  0  2  0  0  0  0  0  0  0  0  0
   18.2013   70.7786   -3.3465 C   0  0  1  0  0  0  0  0  0  0  0  0
   16.6889   70.7152   -5.1412 C   0  0  2  0  0  0  0  0  0  0  0  0
   15.3652   69.8581   -2.0717 H   0  0  0  0  0  0  0  0  0  0  0  0
   15.2749   68.0427   -3.8711 H   0  0  0  0  0  0  0  0  0  0  0  0
   14.6758   70.2796   -7.0740 O   0  0  0  0  0  0  0  0  0  0  0  0
   17.7569   70.0256  -10.4921 O   0  0  0  0  0  0  0  0  0  0  0  0
   16.9368   70.5324   -6.5435 N   0  0  0  0  0  0  0  0  0  0  0  0
   16.2116   70.1536   -8.7744 N   0  0  0  0  0  0  0  0  0  0  0  0
   15.8554   70.3192   -7.4299 C   0  0  0  0  0  0  0  0  0  0  0  0
   18.2402   70.5657   -7.0269 C   0  0  0  0  0  0  0  0  0  0  0  0
   18.5632   70.4047   -8.3118 C   0  0  0  0  0  0  0  0  0  0  0  0
   17.4923   70.1772   -9.3035 C   0  0  0  0  0  0  0  0  0  0  0  0
   15.4747   70.0034   -9.4103 H   0  0  0  0  0  0  0  0  0  0  0  0
   20.7353   72.6334   -1.6437 O   0  0  0  0  0  0  0  0  0  0  0  0
   20.8090   74.2220   -1.9334 P   0  0  2  0  0  0  0  0  0  0  0  0
   19.5868   74.8163   -1.0557 O   0  0  0  0  0  0  0  0  0  0  0  0
   20.7597   74.5850   -3.3893 O   0  0  0  0  0  0  0  0  0  0  0  0
   22.1400   74.7159   -1.1656 O   0  0  0  0  0  0  0  0  0  0  0  0
   21.9198   75.5239    1.0514 O   0  0  0  0  0  0  0  0  0  0  0  0
   25.5953   77.1569    0.1161 O   0  0  0  0  0  0  0  0  0  0  0  0
   25.4499   74.9440    1.9410 O   0  0  0  0  0  0  0  0  0  0  0  0
   23.5074   77.0580   -1.8865 O   0  0  0  0  0  0  0  0  0  0  0  0
   24.5638   76.1667    0.0860 C   0  0  1  0  0  0  0  0  0  0  0  0
   24.3129   75.6919    1.5187 C   0  0  1  0  0  0  0  0  0  0  0  0
   23.2975   76.7829   -0.5057 C   0  0  2  0  0  0  0  0  0  0  0  0
   23.0455   74.8307    1.6029 C   0  0  1  0  0  0  0  0  0  0  0  0
   22.0861   75.8662   -0.3259 C   0  0  1  0  0  0  0  0  0  0  0  0
   26.4023   76.7719    0.4903 H   0  0  0  0  0  0  0  0  0  0  0  0
   26.2434   75.4991    1.8825 H   0  0  0  0  0  0  0  0  0  0  0  0
   24.2767   77.6394   -1.9869 H   0  0  0  0  0  0  0  0  0  0  0  0
   21.3293   74.0852    3.0888 O   0  0  0  0  0  0  0  0  0  0  0  0
   22.6889   74.4774    3.0452 C   0  0  0  0  0  0  0  0  0  0  0  0
   21.0884   73.8570    4.0007 H   0  0  0  0  0  0  0  0  0  0  0  0
 25 28  1  0
 25 24  1  0
 25 26  1  1
 25 27  2  0
  1  4  1  0
  1 24  1  0
  1  2  1  6
  1  3  2  0
  6 11  1  0
  6 12  1  0
 29 36  1  0
 29 37  1  0
  9  7  1  1
  7 13  1  0
 10  8  1  1
  8 14  1  0
 37 28  1  6
  4  5  1  0
 33 30  1  1
 30 38  1  0
 34 31  1  6
 31 39  1  0
 35 32  1  6
 32 40  1  0
 41 42  1  0
 41 43  1  0
 15 19  2  0
 16 22  2  0
 12 17  1  6
 17 19  1  0
 17 20  1  0
 18 19  1  0
 18 22  1  0
 18 23  1  0
  9 10  1  0
  9 11  1  0
 10 12  1  0
 11  5  1  6
 33 34  1  0
 33 35  1  0
 34 36  1  0
 35 37  1  0
 36 42  1  1
 20 21  2  0
 21 22  1  0
M  CHG  2   2  -1  26  -1
M  END
>  <COMPND>  (167) 
    8629 

>  <AUTHOR>  (167) 
    GENERATED BY OPEN BABEL 3.1.1

>  <MASTER>  (167) 
        0    0    0    0    0    0    0    0   58    0   58    0

>  <minimizedAffinity>  (167) 
-6.97527

>  <CNNscore>  (167) 
0.5664327741

>  <CNNaffinity>  (167) 
4.3343858719

>  <CNN_VS>  (167) 
2.4551382065

>  <CNNaffinity_variance>  (167) 
0.1141656414

$$$$
168
     RDKit          3D

 43 45  0  0  0  0  0  0  0  0999 V2000
   21.2087   71.2323   -2.3994 P   0  0  2  0  0  0  0  0  0  0  0  0
   22.5925   71.6803   -3.1078 O   0  0  0  0  0  0  0  0  0  0  0  0
   20.9674   69.7519   -2.3596 O   0  0  0  0  0  0  0  0  0  0  0  0
   20.0813   72.1078   -3.1612 O   0  0  0  0  0  0  0  0  0  0  0  0
   19.4197   71.5355   -4.2759 C   0  0  0  0  0  0  0  0  0  0  0  0
   17.1917   71.5977   -5.1736 O   0  0  0  0  0  0  0  0  0  0  0  0
   16.3560   70.1182   -2.7031 O   0  0  0  0  0  0  0  0  0  0  0  0
   16.4701   68.1363   -4.5728 O   0  0  0  0  0  0  0  0  0  0  0  0
   17.5599   70.0031   -3.4598 C   0  0  1  0  0  0  0  0  0  0  0  0
   17.2973   69.2670   -4.7570 C   0  0  2  0  0  0  0  0  0  0  0  0
   17.9383   71.3937   -3.9541 C   0  0  1  0  0  0  0  0  0  0  0  0
   16.6368   70.3433   -5.6018 C   0  0  2  0  0  0  0  0  0  0  0  0
   16.0946   69.2425   -2.3765 H   0  0  0  0  0  0  0  0  0  0  0  0
   16.9346   67.4807   -4.0295 H   0  0  0  0  0  0  0  0  0  0  0  0
   14.7125   70.7208   -7.6346 O   0  0  0  0  0  0  0  0  0  0  0  0
   17.7370   69.6634  -10.9475 O   0  0  0  0  0  0  0  0  0  0  0  0
   16.8943   70.1738   -7.0040 N   0  0  0  0  0  0  0  0  0  0  0  0
   16.2201   70.1942   -9.2825 N   0  0  0  0  0  0  0  0  0  0  0  0
   15.8584   70.3870   -7.9431 C   0  0  0  0  0  0  0  0  0  0  0  0
   18.1624   69.8005   -7.4356 C   0  0  0  0  0  0  0  0  0  0  0  0
   18.4908   69.6195   -8.7164 C   0  0  0  0  0  0  0  0  0  0  0  0
   17.4663   69.8221   -9.7611 C   0  0  0  0  0  0  0  0  0  0  0  0
   15.5145   70.3368   -9.9545 H   0  0  0  0  0  0  0  0  0  0  0  0
   21.2981   71.9387   -0.9482 O   0  0  0  0  0  0  0  0  0  0  0  0
   21.2579   73.4974   -0.5219 P   0  0  2  0  0  0  0  0  0  0  0  0
   21.7443   73.4728    1.0209 O   0  0  0  0  0  0  0  0  0  0  0  0
   19.9296   74.1615   -0.7420 O   0  0  0  0  0  0  0  0  0  0  0  0
   22.4844   74.1723   -1.3252 O   0  0  0  0  0  0  0  0  0  0  0  0
   23.5232   76.2926   -1.5289 O   0  0  0  0  0  0  0  0  0  0  0  0
   22.9369   75.4581   -5.5302 O   0  0  0  0  0  0  0  0  0  0  0  0
   25.5881   75.3446   -4.4318 O   0  0  0  0  0  0  0  0  0  0  0  0
   20.9200   74.7179   -3.5902 O   0  0  0  0  0  0  0  0  0  0  0  0
   23.2194   75.1494   -4.1626 C   0  0  1  0  0  0  0  0  0  0  0  0
   24.4765   75.9164   -3.7477 C   0  0  1  0  0  0  0  0  0  0  0  0
   22.0280   75.5635   -3.3010 C   0  0  2  0  0  0  0  0  0  0  0  0
   24.6910   75.8488   -2.2296 C   0  0  1  0  0  0  0  0  0  0  0  0
   22.3629   75.5072   -1.8095 C   0  0  1  0  0  0  0  0  0  0  0  0
   23.6893   75.1971   -6.0828 H   0  0  0  0  0  0  0  0  0  0  0  0
   25.4398   75.3932   -5.3893 H   0  0  0  0  0  0  0  0  0  0  0  0
   20.7178   74.7626   -4.5373 H   0  0  0  0  0  0  0  0  0  0  0  0
   26.0975   77.6995   -2.7821 O   0  0  0  0  0  0  0  0  0  0  0  0
   25.8479   76.7360   -1.7754 C   0  0  0  0  0  0  0  0  0  0  0  0
   26.8314   78.2715   -2.5066 H   0  0  0  0  0  0  0  0  0  0  0  0
 25 28  1  0
 25 24  1  0
 25 26  1  1
 25 27  2  0
  1  4  1  0
  1 24  1  0
  1  2  1  6
  1  3  2  0
  6 11  1  0
  6 12  1  0
 29 36  1  0
 29 37  1  0
  9  7  1  1
  7 13  1  0
 10  8  1  1
  8 14  1  0
 37 28  1  6
  4  5  1  0
 33 30  1  6
 30 38  1  0
 34 31  1  6
 31 39  1  0
 35 32  1  1
 32 40  1  0
 41 42  1  0
 41 43  1  0
 15 19  2  0
 16 22  2  0
 12 17  1  6
 17 19  1  0
 17 20  1  0
 18 19  1  0
 18 22  1  0
 18 23  1  0
  9 10  1  0
  9 11  1  0
 10 12  1  0
 11  5  1  6
 33 34  1  0
 33 35  1  0
 34 36  1  0
 35 37  1  0
 36 42  1  6
 20 21  2  0
 21 22  1  0
M  CHG  2   2  -1  26  -1
M  END
>  <COMPND>  (168) 
    8629 

>  <AUTHOR>  (168) 
    GENERATED BY OPEN BABEL 3.1.1

>  <MASTER>  (168) 
        0    0    0    0    0    0    0    0   58    0   58    0

>  <minimizedAffinity>  (168) 
-7.25478

>  <CNNscore>  (168) 
0.5340529680

>  <CNNaffinity>  (168) 
4.4490270615

>  <CNN_VS>  (168) 
2.3760161400

>  <CNNaffinity_variance>  (168) 
0.1206439137

$$$$
169
     RDKit          3D

 43 45  0  0  0  0  0  0  0  0999 V2000
   21.1903   73.7292   -6.8040 P   0  0  2  0  0  0  0  0  0  0  0  0
   20.2893   75.0595   -6.9931 O   0  0  0  0  0  0  0  0  0  0  0  0
   22.4676   73.7116   -7.5912 O   0  0  0  0  0  0  0  0  0  0  0  0
   20.1618   72.5173   -7.1065 O   0  0  0  0  0  0  0  0  0  0  0  0
   19.2280   72.6704   -8.1612 C   0  0  0  0  0  0  0  0  0  0  0  0
   18.7809   70.3733   -7.6158 O   0  0  0  0  0  0  0  0  0  0  0  0
   17.5484   70.1612  -10.3410 O   0  0  0  0  0  0  0  0  0  0  0  0
   15.3688   70.4038   -8.7202 O   0  0  0  0  0  0  0  0  0  0  0  0
   17.5334   71.2563   -9.4268 C   0  0  1  0  0  0  0  0  0  0  0  0
   16.5859   70.9711   -8.2802 C   0  0  2  0  0  0  0  0  0  0  0  0
   18.8832   71.2972   -8.7213 C   0  0  1  0  0  0  0  0  0  0  0  0
   17.4022   70.0148   -7.4274 C   0  0  2  0  0  0  0  0  0  0  0  0
   16.6967   70.1148  -10.8039 H   0  0  0  0  0  0  0  0  0  0  0  0
   14.8863   71.0506   -9.2583 H   0  0  0  0  0  0  0  0  0  0  0  0
   15.1810   68.7671   -6.2078 O   0  0  0  0  0  0  0  0  0  0  0  0
   16.2670   70.4703   -2.0652 O   0  0  0  0  0  0  0  0  0  0  0  0
   17.0808   70.1150   -6.0317 N   0  0  0  0  0  0  0  0  0  0  0  0
   15.7236   69.6160   -4.1461 N   0  0  0  0  0  0  0  0  0  0  0  0
   15.9420   69.4505   -5.5197 C   0  0  0  0  0  0  0  0  0  0  0  0
   17.8907   70.8654   -5.1862 C   0  0  0  0  0  0  0  0  0  0  0  0
   17.6680   71.0143   -3.8788 C   0  0  0  0  0  0  0  0  0  0  0  0
   16.4989   70.3525   -3.2645 C   0  0  0  0  0  0  0  0  0  0  0  0
   14.9359   69.1625   -3.7672 H   0  0  0  0  0  0  0  0  0  0  0  0
   21.3864   73.6477   -5.2016 O   0  0  0  0  0  0  0  0  0  0  0  0
   22.3826   74.4486   -4.2120 P   0  0  2  0  0  0  0  0  0  0  0  0
   21.8386   75.9703   -4.2897 O   0  0  0  0  0  0  0  0  0  0  0  0
   23.8380   74.2934   -4.5463 O   0  0  0  0  0  0  0  0  0  0  0  0
   21.9791   73.9465   -2.7321 O   0  0  0  0  0  0  0  0  0  0  0  0
   23.5274   75.1281   -1.3819 O   0  0  0  0  0  0  0  0  0  0  0  0
   21.2492   73.3916    1.5922 O   0  0  0  0  0  0  0  0  0  0  0  0
   21.0155   76.2096    1.0899 O   0  0  0  0  0  0  0  0  0  0  0  0
   21.8615   71.9021   -0.8133 O   0  0  0  0  0  0  0  0  0  0  0  0
   21.4867   73.9954    0.3177 C   0  0  1  0  0  0  0  0  0  0  0  0
   22.0540   75.3973    0.5495 C   0  0  1  0  0  0  0  0  0  0  0  0
   22.4787   73.1366   -0.4645 C   0  0  2  0  0  0  0  0  0  0  0  0
   22.5819   76.0043   -0.7574 C   0  0  1  0  0  0  0  0  0  0  0  0
   22.9785   73.8530   -1.7203 C   0  0  1  0  0  0  0  0  0  0  0  0
   20.6197   73.9317    2.0937 H   0  0  0  0  0  0  0  0  0  0  0  0
   20.6906   75.8149    1.9145 H   0  0  0  0  0  0  0  0  0  0  0  0
   21.5497   71.4582   -0.0098 H   0  0  0  0  0  0  0  0  0  0  0  0
   23.7076   77.3914    0.8294 O   0  0  0  0  0  0  0  0  0  0  0  0
   23.2938   77.3350   -0.5234 C   0  0  0  0  0  0  0  0  0  0  0  0
   24.1625   78.2328    0.9929 H   0  0  0  0  0  0  0  0  0  0  0  0
 25 28  1  0
 25 24  1  0
 25 26  1  1
 25 27  2  0
  1  4  1  0
  1 24  1  0
  1  2  1  1
  1  3  2  0
  6 11  1  0
  6 12  1  0
 29 36  1  0
 29 37  1  0
  9  7  1  6
  7 13  1  0
 10  8  1  6
  8 14  1  0
 37 28  1  6
  4  5  1  0
 33 30  1  1
 30 38  1  0
 34 31  1  6
 31 39  1  0
 35 32  1  6
 32 40  1  0
 41 42  1  0
 41 43  1  0
 15 19  2  0
 16 22  2  0
 12 17  1  1
 17 19  1  0
 17 20  1  0
 18 19  1  0
 18 22  1  0
 18 23  1  0
  9 10  1  0
  9 11  1  0
 10 12  1  0
 11  5  1  1
 33 34  1  0
 33 35  1  0
 34 36  1  0
 35 37  1  0
 36 42  1  1
 20 21  2  0
 21 22  1  0
M  CHG  2   2  -1  26  -1
M  END
>  <COMPND>  (169) 
    8629 

>  <AUTHOR>  (169) 
    GENERATED BY OPEN BABEL 3.1.1

>  <MASTER>  (169) 
        0    0    0    0    0    0    0    0   58    0   58    0

>  <minimizedAffinity>  (169) 
-7.13698

>  <CNNscore>  (169) 
0.4512333274

>  <CNNaffinity>  (169) 
4.2852106094

>  <CNN_VS>  (169) 
1.9336298704

>  <CNNaffinity_variance>  (169) 
0.1710747778

$$$$
170
     RDKit          3D

 43 45  0  0  0  0  0  0  0  0999 V2000
   15.9016   70.3798   -3.7966 P   0  0  2  0  0  0  0  0  0  0  0  0
   16.1582   68.9162   -4.4367 O   0  0  0  0  0  0  0  0  0  0  0  0
   15.3394   70.3734   -2.4055 O   0  0  0  0  0  0  0  0  0  0  0  0
   15.0093   71.1403   -4.9117 O   0  0  0  0  0  0  0  0  0  0  0  0
   15.5766   72.2459   -5.5926 C   0  0  0  0  0  0  0  0  0  0  0  0
   16.2337   72.8852   -7.8137 O   0  0  0  0  0  0  0  0  0  0  0  0
   14.4874   70.6447   -8.7736 O   0  0  0  0  0  0  0  0  0  0  0  0
   16.9850   69.5614   -8.9323 O   0  0  0  0  0  0  0  0  0  0  0  0
   15.3048   70.7150   -7.6064 C   0  0  1  0  0  0  0  0  0  0  0  0
   16.7666   70.5819   -7.9795 C   0  0  2  0  0  0  0  0  0  0  0  0
   15.2410   72.1411   -7.0740 C   0  0  1  0  0  0  0  0  0  0  0  0
   17.0804   71.9656   -8.5225 C   0  0  2  0  0  0  0  0  0  0  0  0
   14.5120   69.7429   -9.1315 H   0  0  0  0  0  0  0  0  0  0  0  0
   16.7714   68.7008   -8.5392 H   0  0  0  0  0  0  0  0  0  0  0  0
   19.2292   71.1221  -10.1501 O   0  0  0  0  0  0  0  0  0  0  0  0
   22.2980   73.4559   -7.6248 O   0  0  0  0  0  0  0  0  0  0  0  0
   18.4512   72.3381   -8.3135 N   0  0  0  0  0  0  0  0  0  0  0  0
   20.7554   72.2850   -8.8915 N   0  0  0  0  0  0  0  0  0  0  0  0
   19.4543   71.8593   -9.1881 C   0  0  0  0  0  0  0  0  0  0  0  0
   18.7892   73.1694   -7.2512 C   0  0  0  0  0  0  0  0  0  0  0  0
   20.0349   73.5651   -6.9812 C   0  0  0  0  0  0  0  0  0  0  0  0
   21.1418   73.1096   -7.8468 C   0  0  0  0  0  0  0  0  0  0  0  0
   21.4708   71.9636   -9.4871 H   0  0  0  0  0  0  0  0  0  0  0  0
   17.3443   71.0954   -3.9359 O   0  0  0  0  0  0  0  0  0  0  0  0
   18.8411   70.5082   -3.7687 P   0  0  2  0  0  0  0  0  0  0  0  0
   19.2815   70.1762   -5.2896 O   0  0  0  0  0  0  0  0  0  0  0  0
   18.9437   69.3442   -2.8261 O   0  0  0  0  0  0  0  0  0  0  0  0
   19.7370   71.7852   -3.3544 O   0  0  0  0  0  0  0  0  0  0  0  0
   21.6702   72.9033   -4.1477 O   0  0  0  0  0  0  0  0  0  0  0  0
   22.7184   72.5123   -0.1728 O   0  0  0  0  0  0  0  0  0  0  0  0
   21.9888   75.0933   -1.1996 O   0  0  0  0  0  0  0  0  0  0  0  0
   21.3091   70.3676   -1.5122 O   0  0  0  0  0  0  0  0  0  0  0  0
   21.8236   72.7083   -1.2712 C   0  0  1  0  0  0  0  0  0  0  0  0
   22.2597   73.9651   -2.0267 C   0  0  1  0  0  0  0  0  0  0  0  0
   21.8793   71.4853   -2.1847 C   0  0  2  0  0  0  0  0  0  0  0  0
   21.5182   74.0928   -3.3642 C   0  0  1  0  0  0  0  0  0  0  0  0
   21.1530   71.7350   -3.5077 C   0  0  1  0  0  0  0  0  0  0  0  0
   22.6874   73.2851    0.4114 H   0  0  0  0  0  0  0  0  0  0  0  0
   22.4626   75.0000   -0.3581 H   0  0  0  0  0  0  0  0  0  0  0  0
   21.7777   70.2197   -0.6765 H   0  0  0  0  0  0  0  0  0  0  0  0
   22.9328   74.7303   -5.1811 O   0  0  0  0  0  0  0  0  0  0  0  0
   22.0501   75.2515   -4.2047 C   0  0  0  0  0  0  0  0  0  0  0  0
   23.2790   75.4565   -5.7238 H   0  0  0  0  0  0  0  0  0  0  0  0
 25 28  1  0
 25 24  1  0
 25 26  1  6
 25 27  2  0
  1  4  1  0
  1 24  1  0
  1  2  1  6
  1  3  2  0
  6 11  1  0
  6 12  1  0
 29 36  1  0
 29 37  1  0
  9  7  1  6
  7 13  1  0
 10  8  1  6
  8 14  1  0
 37 28  1  1
  4  5  1  0
 33 30  1  1
 30 38  1  0
 34 31  1  1
 31 39  1  0
 35 32  1  1
 32 40  1  0
 41 42  1  0
 41 43  1  0
 15 19  2  0
 16 22  2  0
 12 17  1  1
 17 19  1  0
 17 20  1  0
 18 19  1  0
 18 22  1  0
 18 23  1  0
  9 10  1  0
  9 11  1  0
 10 12  1  0
 11  5  1  1
 33 34  1  0
 33 35  1  0
 34 36  1  0
 35 37  1  0
 36 42  1  6
 20 21  2  0
 21 22  1  0
M  CHG  2   2  -1  26  -1
M  END
>  <COMPND>  (170) 
    8629 

>  <AUTHOR>  (170) 
    GENERATED BY OPEN BABEL 3.1.1

>  <MASTER>  (170) 
        0    0    0    0    0    0    0    0   58    0   58    0

>  <minimizedAffinity>  (170) 
-8.10230

>  <CNNscore>  (170) 
0.4458907247

>  <CNNaffinity>  (170) 
4.1935949326

>  <CNN_VS>  (170) 
1.8698850870

>  <CNNaffinity_variance>  (170) 
0.5195125341

$$$$
171
     RDKit          3D

 43 45  0  0  0  0  0  0  0  0999 V2000
   17.0674   72.1455   -4.6965 P   0  0  2  0  0  0  0  0  0  0  0  0
   15.7025   72.8179   -4.1466 O   0  0  0  0  0  0  0  0  0  0  0  0
   18.1895   73.1081   -4.9530 O   0  0  0  0  0  0  0  0  0  0  0  0
   16.5847   71.2732   -5.9709 O   0  0  0  0  0  0  0  0  0  0  0  0
   17.5606   70.8404   -6.9026 C   0  0  0  0  0  0  0  0  0  0  0  0
   15.6319   71.3935   -8.2247 O   0  0  0  0  0  0  0  0  0  0  0  0
   17.3671   70.9059  -10.6210 O   0  0  0  0  0  0  0  0  0  0  0  0
   17.3507   73.6270  -10.4429 O   0  0  0  0  0  0  0  0  0  0  0  0
   17.7099   71.4797   -9.3607 C   0  0  1  0  0  0  0  0  0  0  0  0
   17.1575   72.8859   -9.2554 C   0  0  2  0  0  0  0  0  0  0  0  0
   16.9223   70.7469   -8.2817 C   0  0  1  0  0  0  0  0  0  0  0  0
   15.6899   72.6266   -8.9603 C   0  0  2  0  0  0  0  0  0  0  0  0
   17.8581   71.3574  -11.3260 H   0  0  0  0  0  0  0  0  0  0  0  0
   18.2999   73.7658  -10.5868 H   0  0  0  0  0  0  0  0  0  0  0  0
   12.9438   73.2868   -8.9902 O   0  0  0  0  0  0  0  0  0  0  0  0
   13.5300   76.6457   -5.8894 O   0  0  0  0  0  0  0  0  0  0  0  0
   15.0976   73.6690   -8.1704 N   0  0  0  0  0  0  0  0  0  0  0  0
   13.2379   74.9586   -7.4461 N   0  0  0  0  0  0  0  0  0  0  0  0
   13.7087   73.9204   -8.2600 C   0  0  0  0  0  0  0  0  0  0  0  0
   15.8916   74.4292   -7.3186 C   0  0  0  0  0  0  0  0  0  0  0  0
   15.4275   75.4166   -6.5500 C   0  0  0  0  0  0  0  0  0  0  0  0
   13.9873   75.7435   -6.5841 C   0  0  0  0  0  0  0  0  0  0  0  0
   12.2734   75.1520   -7.4921 H   0  0  0  0  0  0  0  0  0  0  0  0
   17.3901   71.0170   -3.5850 O   0  0  0  0  0  0  0  0  0  0  0  0
   18.7616   70.2390   -3.2293 P   0  0  2  0  0  0  0  0  0  0  0  0
   19.4305   69.9838   -4.6801 O   0  0  0  0  0  0  0  0  0  0  0  0
   18.5692   68.9964   -2.4089 O   0  0  0  0  0  0  0  0  0  0  0  0
   19.6986   71.3575   -2.5394 O   0  0  0  0  0  0  0  0  0  0  0  0
   21.1614   72.7967   -3.7249 O   0  0  0  0  0  0  0  0  0  0  0  0
   23.1627   72.6488   -0.1161 O   0  0  0  0  0  0  0  0  0  0  0  0
   21.7650   75.0433   -0.8653 O   0  0  0  0  0  0  0  0  0  0  0  0
   21.8849   70.2691   -1.1571 O   0  0  0  0  0  0  0  0  0  0  0  0
   22.0156   72.6669   -0.9701 C   0  0  1  0  0  0  0  0  0  0  0  0
   22.0316   73.9727   -1.7671 C   0  0  1  0  0  0  0  0  0  0  0  0
   22.0732   71.4633   -1.9088 C   0  0  2  0  0  0  0  0  0  0  0  0
   20.9873   73.9484   -2.8913 C   0  0  1  0  0  0  0  0  0  0  0  0
   21.0251   71.5619   -3.0187 C   0  0  1  0  0  0  0  0  0  0  0  0
   23.1320   73.4103    0.4829 H   0  0  0  0  0  0  0  0  0  0  0  0
   22.4313   75.0471   -0.1601 H   0  0  0  0  0  0  0  0  0  0  0  0
   22.5546   70.2183   -0.4580 H   0  0  0  0  0  0  0  0  0  0  0  0
   20.3563   74.9236   -4.9793 O   0  0  0  0  0  0  0  0  0  0  0  0
   21.0924   75.1740   -3.7962 C   0  0  0  0  0  0  0  0  0  0  0  0
   20.4139   75.6954   -5.5647 H   0  0  0  0  0  0  0  0  0  0  0  0
 25 28  1  0
 25 24  1  0
 25 26  1  6
 25 27  2  0
  1  4  1  0
  1 24  1  0
  1  2  1  1
  1  3  2  0
  6 11  1  0
  6 12  1  0
 29 36  1  0
 29 37  1  0
  9  7  1  6
  7 13  1  0
 10  8  1  6
  8 14  1  0
 37 28  1  1
  4  5  1  0
 33 30  1  1
 30 38  1  0
 34 31  1  1
 31 39  1  0
 35 32  1  1
 32 40  1  0
 41 42  1  0
 41 43  1  0
 15 19  2  0
 16 22  2  0
 12 17  1  1
 17 19  1  0
 17 20  1  0
 18 19  1  0
 18 22  1  0
 18 23  1  0
  9 10  1  0
  9 11  1  0
 10 12  1  0
 11  5  1  1
 33 34  1  0
 33 35  1  0
 34 36  1  0
 35 37  1  0
 36 42  1  6
 20 21  2  0
 21 22  1  0
M  CHG  2   2  -1  26  -1
M  END
>  <COMPND>  (171) 
    8629 

>  <AUTHOR>  (171) 
    GENERATED BY OPEN BABEL 3.1.1

>  <MASTER>  (171) 
        0    0    0    0    0    0    0    0   58    0   58    0

>  <minimizedAffinity>  (171) 
-6.57738

>  <CNNscore>  (171) 
0.4449669421

>  <CNNaffinity>  (171) 
4.0944395065

>  <CNN_VS>  (171) 
1.8218902349

>  <CNNaffinity_variance>  (171) 
0.2259635180

$$$$
172
     RDKit          3D

 43 45  0  0  0  0  0  0  0  0999 V2000
   21.2573   71.1681   -2.2197 P   0  0  2  0  0  0  0  0  0  0  0  0
   22.2750   71.1532   -3.4772 O   0  0  0  0  0  0  0  0  0  0  0  0
   21.9111   71.0564   -0.8738 O   0  0  0  0  0  0  0  0  0  0  0  0
   20.1820   70.0129   -2.5766 O   0  0  0  0  0  0  0  0  0  0  0  0
   19.4859   70.0944   -3.8081 C   0  0  0  0  0  0  0  0  0  0  0  0
   17.6417   71.2871   -4.7829 O   0  0  0  0  0  0  0  0  0  0  0  0
   16.0097   70.2676   -2.4833 O   0  0  0  0  0  0  0  0  0  0  0  0
   15.2918   68.5914   -4.5110 O   0  0  0  0  0  0  0  0  0  0  0  0
   17.0610   69.6221   -3.1998 C   0  0  1  0  0  0  0  0  0  0  0  0
   16.5742   69.1825   -4.5649 C   0  0  2  0  0  0  0  0  0  0  0  0
   18.1013   70.6762   -3.5574 C   0  0  1  0  0  0  0  0  0  0  0  0
   16.5833   70.4899   -5.3387 C   0  0  2  0  0  0  0  0  0  0  0  0
   15.3332   69.6142   -2.2437 H   0  0  0  0  0  0  0  0  0  0  0  0
   15.3383   67.7630   -4.0086 H   0  0  0  0  0  0  0  0  0  0  0  0
   14.6422   70.8158   -7.3645 O   0  0  0  0  0  0  0  0  0  0  0  0
   17.6507   69.7163  -10.6783 O   0  0  0  0  0  0  0  0  0  0  0  0
   16.8321   70.2956   -6.7393 N   0  0  0  0  0  0  0  0  0  0  0  0
   16.1418   70.2682   -9.0129 N   0  0  0  0  0  0  0  0  0  0  0  0
   15.7882   70.4840   -7.6748 C   0  0  0  0  0  0  0  0  0  0  0  0
   18.0998   69.9228   -7.1727 C   0  0  0  0  0  0  0  0  0  0  0  0
   18.4204   69.7197   -8.4523 C   0  0  0  0  0  0  0  0  0  0  0  0
   17.3873   69.8956   -9.4933 C   0  0  0  0  0  0  0  0  0  0  0  0
   15.4306   70.3932   -9.6824 H   0  0  0  0  0  0  0  0  0  0  0  0
   20.4169   72.5299   -2.4485 O   0  0  0  0  0  0  0  0  0  0  0  0
   20.8894   74.0753   -2.4857 P   0  0  2  0  0  0  0  0  0  0  0  0
   22.5015   73.9727   -2.3967 O   0  0  0  0  0  0  0  0  0  0  0  0
   20.2642   74.9356   -1.4260 O   0  0  0  0  0  0  0  0  0  0  0  0
   20.5944   74.5563   -3.9978 O   0  0  0  0  0  0  0  0  0  0  0  0
   19.1100   73.7655   -5.6675 O   0  0  0  0  0  0  0  0  0  0  0  0
   22.3974   74.5680   -8.0338 O   0  0  0  0  0  0  0  0  0  0  0  0
   20.0978   76.2827   -8.1729 O   0  0  0  0  0  0  0  0  0  0  0  0
   22.7603   73.4423   -5.3917 O   0  0  0  0  0  0  0  0  0  0  0  0
   21.4931   74.7768   -6.9457 C   0  0  1  0  0  0  0  0  0  0  0  0
   20.0961   75.0151   -7.5221 C   0  0  1  0  0  0  0  0  0  0  0  0
   21.5003   73.5418   -6.0467 C   0  0  2  0  0  0  0  0  0  0  0  0
   19.0289   74.9817   -6.4198 C   0  0  1  0  0  0  0  0  0  0  0  0
   20.3696   73.5860   -5.0172 C   0  0  1  0  0  0  0  0  0  0  0  0
   22.3980   75.3487   -8.6082 H   0  0  0  0  0  0  0  0  0  0  0  0
   20.7763   76.2907   -8.8662 H   0  0  0  0  0  0  0  0  0  0  0  0
   23.4677   73.4149   -6.0541 H   0  0  0  0  0  0  0  0  0  0  0  0
   17.1847   73.7486   -7.3069 O   0  0  0  0  0  0  0  0  0  0  0  0
   17.6146   75.0598   -6.9905 C   0  0  0  0  0  0  0  0  0  0  0  0
   16.2858   73.7827   -7.6710 H   0  0  0  0  0  0  0  0  0  0  0  0
 25 28  1  0
 25 24  1  0
 25 26  1  1
 25 27  2  0
  1  4  1  0
  1 24  1  0
  1  2  1  6
  1  3  2  0
  6 11  1  0
  6 12  1  0
 29 36  1  0
 29 37  1  0
  9  7  1  1
  7 13  1  0
 10  8  1  1
  8 14  1  0
 37 28  1  1
  4  5  1  0
 33 30  1  6
 30 38  1  0
 34 31  1  1
 31 39  1  0
 35 32  1  1
 32 40  1  0
 41 42  1  0
 41 43  1  0
 15 19  2  0
 16 22  2  0
 12 17  1  6
 17 19  1  0
 17 20  1  0
 18 19  1  0
 18 22  1  0
 18 23  1  0
  9 10  1  0
  9 11  1  0
 10 12  1  0
 11  5  1  6
 33 34  1  0
 33 35  1  0
 34 36  1  0
 35 37  1  0
 36 42  1  6
 20 21  2  0
 21 22  1  0
M  CHG  2   2  -1  26  -1
M  END
>  <COMPND>  (172) 
    8629 

>  <AUTHOR>  (172) 
    GENERATED BY OPEN BABEL 3.1.1

>  <MASTER>  (172) 
        0    0    0    0    0    0    0    0   58    0   58    0

>  <minimizedAffinity>  (172) 
-7.71309

>  <CNNscore>  (172) 
0.4401404560

>  <CNNaffinity>  (172) 
4.0569944382

>  <CNN_VS>  (172) 
1.7856473923

>  <CNNaffinity_variance>  (172) 
0.6703549623

$$$$
173
     RDKit          3D

 43 45  0  0  0  0  0  0  0  0999 V2000
   18.9747   69.9501   -3.2941 P   0  0  2  0  0  0  0  0  0  0  0  0
   18.1369   68.7422   -2.6185 O   0  0  0  0  0  0  0  0  0  0  0  0
   19.2534   69.7861   -4.7593 O   0  0  0  0  0  0  0  0  0  0  0  0
   20.2757   70.0995   -2.3439 O   0  0  0  0  0  0  0  0  0  0  0  0
   21.5441   70.2609   -2.9546 C   0  0  0  0  0  0  0  0  0  0  0  0
   22.8842   72.2529   -3.0527 O   0  0  0  0  0  0  0  0  0  0  0  0
   22.4162   72.4883   -0.1004 O   0  0  0  0  0  0  0  0  0  0  0  0
   20.6411   74.2851   -1.1287 O   0  0  0  0  0  0  0  0  0  0  0  0
   21.5329   72.0232   -1.1196 C   0  0  1  0  0  0  0  0  0  0  0  0
   21.0138   73.1876   -1.9371 C   0  0  2  0  0  0  0  0  0  0  0  0
   22.3608   71.2587   -2.1450 C   0  0  1  0  0  0  0  0  0  0  0  0
   22.2011   73.4978   -2.8328 C   0  0  2  0  0  0  0  0  0  0  0  0
   21.9101   72.9795    0.5664 H   0  0  0  0  0  0  0  0  0  0  0  0
   19.8821   74.0379   -0.5777 H   0  0  0  0  0  0  0  0  0  0  0  0
   23.8791   75.0327   -4.5080 O   0  0  0  0  0  0  0  0  0  0  0  0
   20.5674   75.5337   -7.6739 O   0  0  0  0  0  0  0  0  0  0  0  0
   21.8033   74.0417   -4.1007 N   0  0  0  0  0  0  0  0  0  0  0  0
   22.2288   75.2808   -6.0831 N   0  0  0  0  0  0  0  0  0  0  0  0
   22.7221   74.7993   -4.8637 C   0  0  0  0  0  0  0  0  0  0  0  0
   20.5149   73.8217   -4.5756 C   0  0  0  0  0  0  0  0  0  0  0  0
   20.0596   74.2889   -5.7399 C   0  0  0  0  0  0  0  0  0  0  0  0
   20.9563   75.0901   -6.5979 C   0  0  0  0  0  0  0  0  0  0  0  0
   22.8511   75.8116   -6.6315 H   0  0  0  0  0  0  0  0  0  0  0  0
   18.0983   71.2552   -2.9179 O   0  0  0  0  0  0  0  0  0  0  0  0
   16.5066   71.5247   -2.9999 P   0  0  2  0  0  0  0  0  0  0  0  0
   16.3890   73.1231   -2.7783 O   0  0  0  0  0  0  0  0  0  0  0  0
   15.6934   70.7050   -2.0404 O   0  0  0  0  0  0  0  0  0  0  0  0
   16.1337   71.3002   -4.5541 O   0  0  0  0  0  0  0  0  0  0  0  0
   17.3474   71.8240   -6.5212 O   0  0  0  0  0  0  0  0  0  0  0  0
   13.5331   72.6788   -7.8520 O   0  0  0  0  0  0  0  0  0  0  0  0
   14.8767   70.3293   -8.8127 O   0  0  0  0  0  0  0  0  0  0  0  0
   14.2982   73.3406   -5.1398 O   0  0  0  0  0  0  0  0  0  0  0  0
   14.5235   71.9668   -7.1054 C   0  0  1  0  0  0  0  0  0  0  0  0
   15.5300   71.3699   -8.0911 C   0  0  1  0  0  0  0  0  0  0  0  0
   15.2174   72.9337   -6.1478 C   0  0  2  0  0  0  0  0  0  0  0  0
   16.7625   70.8209   -7.3600 C   0  0  1  0  0  0  0  0  0  0  0  0
   16.4583   72.3051   -5.5113 C   0  0  1  0  0  0  0  0  0  0  0  0
   13.0884   72.0704   -8.4617 H   0  0  0  0  0  0  0  0  0  0  0  0
   14.1001   70.6892   -9.2693 H   0  0  0  0  0  0  0  0  0  0  0  0
   13.5173   73.7371   -5.5555 H   0  0  0  0  0  0  0  0  0  0  0  0
   18.8788   69.7363   -7.5923 O   0  0  0  0  0  0  0  0  0  0  0  0
   17.8479   70.3640   -8.3323 C   0  0  0  0  0  0  0  0  0  0  0  0
   19.5765   69.4400   -8.1983 H   0  0  0  0  0  0  0  0  0  0  0  0
 25 28  1  0
 25 24  1  0
 25 26  1  1
 25 27  2  0
  1  4  1  0
  1 24  1  0
  1  2  1  1
  1  3  2  0
  6 11  1  0
  6 12  1  0
 29 36  1  0
 29 37  1  0
  9  7  1  1
  7 13  1  0
 10  8  1  1
  8 14  1  0
 37 28  1  1
  4  5  1  0
 33 30  1  6
 30 38  1  0
 34 31  1  1
 31 39  1  0
 35 32  1  1
 32 40  1  0
 41 42  1  0
 41 43  1  0
 15 19  2  0
 16 22  2  0
 12 17  1  6
 17 19  1  0
 17 20  1  0
 18 19  1  0
 18 22  1  0
 18 23  1  0
  9 10  1  0
  9 11  1  0
 10 12  1  0
 11  5  1  6
 33 34  1  0
 33 35  1  0
 34 36  1  0
 35 37  1  0
 36 42  1  6
 20 21  2  0
 21 22  1  0
M  CHG  2   2  -1  26  -1
M  END
>  <COMPND>  (173) 
    8629 

>  <AUTHOR>  (173) 
    GENERATED BY OPEN BABEL 3.1.1

>  <MASTER>  (173) 
        0    0    0    0    0    0    0    0   58    0   58    0

>  <minimizedAffinity>  (173) 
-6.91083

>  <CNNscore>  (173) 
0.4026403427

>  <CNNaffinity>  (173) 
3.9391009808

>  <CNN_VS>  (173) 
1.5860409737

>  <CNNaffinity_variance>  (173) 
0.6006110907

$$$$
174
     RDKit          3D

 43 45  0  0  0  0  0  0  0  0999 V2000
   18.0695   75.8923   -6.0546 P   0  0  2  0  0  0  0  0  0  0  0  0
   16.7987   76.3151   -5.1470 O   0  0  0  0  0  0  0  0  0  0  0  0
   18.6426   76.9950   -6.8955 O   0  0  0  0  0  0  0  0  0  0  0  0
   17.5535   74.5886   -6.8620 O   0  0  0  0  0  0  0  0  0  0  0  0
   16.1577   74.3874   -7.0000 C   0  0  0  0  0  0  0  0  0  0  0  0
   16.9079   72.1901   -7.6188 O   0  0  0  0  0  0  0  0  0  0  0  0
   14.2179   71.8349   -8.8948 O   0  0  0  0  0  0  0  0  0  0  0  0
   13.9421   70.4857   -6.5410 O   0  0  0  0  0  0  0  0  0  0  0  0
   14.5642   72.5312   -7.6988 C   0  0  1  0  0  0  0  0  0  0  0  0
   14.8724   71.5482   -6.5886 C   0  0  2  0  0  0  0  0  0  0  0  0
   15.9168   73.1972   -7.9185 C   0  0  1  0  0  0  0  0  0  0  0  0
   16.2713   71.0844   -6.9578 C   0  0  2  0  0  0  0  0  0  0  0  0
   13.3572   71.4015   -8.7788 H   0  0  0  0  0  0  0  0  0  0  0  0
   13.0680   70.8315   -6.3023 H   0  0  0  0  0  0  0  0  0  0  0  0
   18.5792   69.4584   -7.0423 O   0  0  0  0  0  0  0  0  0  0  0  0
   19.1721   69.7459   -2.4808 O   0  0  0  0  0  0  0  0  0  0  0  0
   17.0485   70.7188   -5.8073 N   0  0  0  0  0  0  0  0  0  0  0  0
   18.8726   69.6030   -4.7710 N   0  0  0  0  0  0  0  0  0  0  0  0
   18.1895   69.8968   -5.9581 C   0  0  0  0  0  0  0  0  0  0  0  0
   16.6772   71.1743   -4.5469 C   0  0  0  0  0  0  0  0  0  0  0  0
   17.3386   70.8841   -3.4246 C   0  0  0  0  0  0  0  0  0  0  0  0
   18.5423   70.0307   -3.4948 C   0  0  0  0  0  0  0  0  0  0  0  0
   19.6706   69.0315   -4.8516 H   0  0  0  0  0  0  0  0  0  0  0  0
   19.0963   75.2675   -4.9737 O   0  0  0  0  0  0  0  0  0  0  0  0
   20.6763   74.9416   -5.0756 P   0  0  2  0  0  0  0  0  0  0  0  0
   21.3627   76.4046   -4.9984 O   0  0  0  0  0  0  0  0  0  0  0  0
   21.0625   74.1394   -6.2844 O   0  0  0  0  0  0  0  0  0  0  0  0
   21.0414   74.2452   -3.6660 O   0  0  0  0  0  0  0  0  0  0  0  0
   23.1743   74.2987   -2.6343 O   0  0  0  0  0  0  0  0  0  0  0  0
   21.8072   70.7014   -1.1371 O   0  0  0  0  0  0  0  0  0  0  0  0
   21.9845   72.9835    0.5974 O   0  0  0  0  0  0  0  0  0  0  0  0
   21.2058   71.4510   -3.8677 O   0  0  0  0  0  0  0  0  0  0  0  0
   21.6909   72.0540   -1.5869 C   0  0  1  0  0  0  0  0  0  0  0  0
   22.5744   72.9323   -0.6986 C   0  0  1  0  0  0  0  0  0  0  0  0
   22.1427   72.1363   -3.0437 C   0  0  2  0  0  0  0  0  0  0  0  0
   22.7121   74.3461   -1.2794 C   0  0  1  0  0  0  0  0  0  0  0  0
   22.2951   73.5863   -3.5068 C   0  0  1  0  0  0  0  0  0  0  0  0
   21.5214   70.6422   -0.2129 H   0  0  0  0  0  0  0  0  0  0  0  0
   21.9028   72.0844    0.9525 H   0  0  0  0  0  0  0  0  0  0  0  0
   21.1185   70.5343   -3.5645 H   0  0  0  0  0  0  0  0  0  0  0  0
   23.2090   75.3891    0.8121 O   0  0  0  0  0  0  0  0  0  0  0  0
   23.7139   75.1913   -0.4956 C   0  0  0  0  0  0  0  0  0  0  0  0
   23.8364   75.9252    1.3226 H   0  0  0  0  0  0  0  0  0  0  0  0
 25 28  1  0
 25 24  1  0
 25 26  1  6
 25 27  2  0
  1  4  1  0
  1 24  1  0
  1  2  1  1
  1  3  2  0
  6 11  1  0
  6 12  1  0
 29 36  1  0
 29 37  1  0
  9  7  1  6
  7 13  1  0
 10  8  1  6
  8 14  1  0
 37 28  1  1
  4  5  1  0
 33 30  1  1
 30 38  1  0
 34 31  1  1
 31 39  1  0
 35 32  1  6
 32 40  1  0
 41 42  1  0
 41 43  1  0
 15 19  2  0
 16 22  2  0
 12 17  1  1
 17 19  1  0
 17 20  1  0
 18 19  1  0
 18 22  1  0
 18 23  1  0
  9 10  1  0
  9 11  1  0
 10 12  1  0
 11  5  1  1
 33 34  1  0
 33 35  1  0
 34 36  1  0
 35 37  1  0
 36 42  1  1
 20 21  2  0
 21 22  1  0
M  CHG  2   2  -1  26  -1
M  END
>  <COMPND>  (174) 
    8629 

>  <AUTHOR>  (174) 
    GENERATED BY OPEN BABEL 3.1.1

>  <MASTER>  (174) 
        0    0    0    0    0    0    0    0   58    0   58    0

>  <minimizedAffinity>  (174) 
-6.34019

>  <CNNscore>  (174) 
0.3709643483

>  <CNNaffinity>  (174) 
4.0900545120

>  <CNN_VS>  (174) 
1.5172643661

>  <CNNaffinity_variance>  (174) 
0.2832149863

$$$$
175
     RDKit          3D

 43 45  0  0  0  0  0  0  0  0999 V2000
   18.7416   73.9386   -7.0770 P   0  0  2  0  0  0  0  0  0  0  0  0
   17.6308   74.5639   -6.0809 O   0  0  0  0  0  0  0  0  0  0  0  0
   19.1661   74.8400   -8.1989 O   0  0  0  0  0  0  0  0  0  0  0  0
   18.1100   72.5161   -7.5192 O   0  0  0  0  0  0  0  0  0  0  0  0
   18.7518   71.3283   -7.0890 C   0  0  0  0  0  0  0  0  0  0  0  0
   17.4571   69.3274   -6.7831 O   0  0  0  0  0  0  0  0  0  0  0  0
   16.8798   69.4754   -9.7217 O   0  0  0  0  0  0  0  0  0  0  0  0
   14.5951   70.4726   -8.6162 O   0  0  0  0  0  0  0  0  0  0  0  0
   17.0204   70.5338   -8.7755 C   0  0  1  0  0  0  0  0  0  0  0  0
   15.7970   70.6098   -7.8860 C   0  0  2  0  0  0  0  0  0  0  0  0
   18.1089   70.1370   -7.7860 C   0  0  1  0  0  0  0  0  0  0  0  0
   16.0331   69.4559   -6.9263 C   0  0  2  0  0  0  0  0  0  0  0  0
   16.1902   69.7061  -10.3645 H   0  0  0  0  0  0  0  0  0  0  0  0
   14.4903   71.2306   -9.2122 H   0  0  0  0  0  0  0  0  0  0  0  0
   14.5613   67.5390   -5.4644 O   0  0  0  0  0  0  0  0  0  0  0  0
   13.8560   70.4703   -1.9785 O   0  0  0  0  0  0  0  0  0  0  0  0
   15.4537   69.6912   -5.6339 N   0  0  0  0  0  0  0  0  0  0  0  0
   14.2115   69.0001   -3.7298 N   0  0  0  0  0  0  0  0  0  0  0  0
   14.7326   68.6618   -4.9852 C   0  0  0  0  0  0  0  0  0  0  0  0
   15.6035   70.9313   -5.0227 C   0  0  0  0  0  0  0  0  0  0  0  0
   15.0993   71.2383   -3.8257 C   0  0  0  0  0  0  0  0  0  0  0  0
   14.3323   70.2188   -3.0811 C   0  0  0  0  0  0  0  0  0  0  0  0
   13.7050   68.2987   -3.2593 H   0  0  0  0  0  0  0  0  0  0  0  0
   19.9322   73.5104   -6.0709 O   0  0  0  0  0  0  0  0  0  0  0  0
   21.4607   74.0235   -5.9559 P   0  0  2  0  0  0  0  0  0  0  0  0
   21.3031   75.6253   -5.7924 O   0  0  0  0  0  0  0  0  0  0  0  0
   22.3393   73.6010   -7.0976 O   0  0  0  0  0  0  0  0  0  0  0  0
   21.9551   73.5126   -4.5069 O   0  0  0  0  0  0  0  0  0  0  0  0
   20.1072   72.8059   -3.2021 O   0  0  0  0  0  0  0  0  0  0  0  0
   23.0610   72.6100   -0.3233 O   0  0  0  0  0  0  0  0  0  0  0  0
   21.9803   70.1827   -1.4134 O   0  0  0  0  0  0  0  0  0  0  0  0
   23.0692   74.7648   -2.2562 O   0  0  0  0  0  0  0  0  0  0  0  0
   22.5174   72.5023   -1.6417 C   0  0  1  0  0  0  0  0  0  0  0  0
   21.3928   71.4653   -1.6135 C   0  0  1  0  0  0  0  0  0  0  0  0
   21.9808   73.8658   -2.0733 C   0  0  2  0  0  0  0  0  0  0  0  0
   20.5871   71.4862   -2.9194 C   0  0  1  0  0  0  0  0  0  0  0  0
   21.1535   73.7669   -3.3562 C   0  0  1  0  0  0  0  0  0  0  0  0
   23.4039   71.7477   -0.0434 H   0  0  0  0  0  0  0  0  0  0  0  0
   22.4865   70.1831   -0.5858 H   0  0  0  0  0  0  0  0  0  0  0  0
   23.5849   74.8189   -1.4370 H   0  0  0  0  0  0  0  0  0  0  0  0
   19.7962   69.2337   -3.0171 O   0  0  0  0  0  0  0  0  0  0  0  0
   19.3655   70.5722   -2.8524 C   0  0  0  0  0  0  0  0  0  0  0  0
   19.0292   68.6406   -2.9764 H   0  0  0  0  0  0  0  0  0  0  0  0
 25 28  1  0
 25 24  1  0
 25 26  1  1
 25 27  2  0
  1  4  1  0
  1 24  1  0
  1  2  1  1
  1  3  2  0
  6 11  1  0
  6 12  1  0
 29 36  1  0
 29 37  1  0
  9  7  1  6
  7 13  1  0
 10  8  1  6
  8 14  1  0
 37 28  1  6
  4  5  1  0
 33 30  1  1
 30 38  1  0
 34 31  1  6
 31 39  1  0
 35 32  1  6
 32 40  1  0
 41 42  1  0
 41 43  1  0
 15 19  2  0
 16 22  2  0
 12 17  1  1
 17 19  1  0
 17 20  1  0
 18 19  1  0
 18 22  1  0
 18 23  1  0
  9 10  1  0
  9 11  1  0
 10 12  1  0
 11  5  1  1
 33 34  1  0
 33 35  1  0
 34 36  1  0
 35 37  1  0
 36 42  1  1
 20 21  2  0
 21 22  1  0
M  CHG  2   2  -1  26  -1
M  END
>  <COMPND>  (175) 
    8629 

>  <AUTHOR>  (175) 
    GENERATED BY OPEN BABEL 3.1.1

>  <MASTER>  (175) 
        0    0    0    0    0    0    0    0   58    0   58    0

>  <minimizedAffinity>  (175) 
-8.02448

>  <CNNscore>  (175) 
0.3658350408

>  <CNNaffinity>  (175) 
4.1459608078

>  <CNN_VS>  (175) 
1.5167376995

>  <CNNaffinity_variance>  (175) 
0.5006815195

$$$$
176
     RDKit          3D

 43 45  0  0  0  0  0  0  0  0999 V2000
   16.7777   73.7474   -2.8279 P   0  0  2  0  0  0  0  0  0  0  0  0
   15.6722   74.1517   -3.9378 O   0  0  0  0  0  0  0  0  0  0  0  0
   16.2602   73.6545   -1.4226 O   0  0  0  0  0  0  0  0  0  0  0  0
   17.9747   74.8094   -3.0671 O   0  0  0  0  0  0  0  0  0  0  0  0
   18.0748   75.4420   -4.3311 C   0  0  0  0  0  0  0  0  0  0  0  0
   20.2429   75.7722   -3.3492 O   0  0  0  0  0  0  0  0  0  0  0  0
   20.9295   77.3011   -5.8356 O   0  0  0  0  0  0  0  0  0  0  0  0
   22.1014   74.8799   -6.2839 O   0  0  0  0  0  0  0  0  0  0  0  0
   20.1111   76.1420   -5.6862 C   0  0  1  0  0  0  0  0  0  0  0  0
   20.9706   74.9201   -5.4375 C   0  0  2  0  0  0  0  0  0  0  0  0
   19.3520   76.2699   -4.3714 C   0  0  1  0  0  0  0  0  0  0  0  0
   21.3415   75.0884   -3.9738 C   0  0  2  0  0  0  0  0  0  0  0  0
   21.4239   77.2423   -6.6686 H   0  0  0  0  0  0  0  0  0  0  0  0
   21.8133   74.7718   -7.2037 H   0  0  0  0  0  0  0  0  0  0  0  0
   23.5151   73.3552   -4.4734 O   0  0  0  0  0  0  0  0  0  0  0  0
   22.0177   70.2875   -1.3769 O   0  0  0  0  0  0  0  0  0  0  0  0
   21.5446   73.8305   -3.3122 N   0  0  0  0  0  0  0  0  0  0  0  0
   22.7678   71.8293   -2.9310 N   0  0  0  0  0  0  0  0  0  0  0  0
   22.6682   73.0351   -3.6368 C   0  0  0  0  0  0  0  0  0  0  0  0
   20.6357   73.3973   -2.3530 C   0  0  0  0  0  0  0  0  0  0  0  0
   20.7443   72.2441   -1.6899 C   0  0  0  0  0  0  0  0  0  0  0  0
   21.8897   71.3543   -1.9697 C   0  0  0  0  0  0  0  0  0  0  0  0
   23.5424   71.2585   -3.1408 H   0  0  0  0  0  0  0  0  0  0  0  0
   17.3917   72.3705   -3.4112 O   0  0  0  0  0  0  0  0  0  0  0  0
   16.7275   70.9094   -3.6029 P   0  0  2  0  0  0  0  0  0  0  0  0
   15.1675   71.1625   -3.2566 O   0  0  0  0  0  0  0  0  0  0  0  0
   17.3750   69.8274   -2.7881 O   0  0  0  0  0  0  0  0  0  0  0  0
   16.7550   70.6540   -5.1963 O   0  0  0  0  0  0  0  0  0  0  0  0
   17.8552   71.8821   -6.8987 O   0  0  0  0  0  0  0  0  0  0  0  0
   14.4479   70.7981   -8.9642 O   0  0  0  0  0  0  0  0  0  0  0  0
   16.9509   69.5409   -9.5987 O   0  0  0  0  0  0  0  0  0  0  0  0
   14.2712   71.5264   -6.1681 O   0  0  0  0  0  0  0  0  0  0  0  0
   15.5126   70.6254   -8.0251 C   0  0  1  0  0  0  0  0  0  0  0  0
   16.8389   70.7044   -8.7838 C   0  0  1  0  0  0  0  0  0  0  0  0
   15.4307   71.7264   -6.9694 C   0  0  2  0  0  0  0  0  0  0  0  0
   18.0263   70.7952   -7.8158 C   0  0  1  0  0  0  0  0  0  0  0  0
   16.6826   71.7611   -6.0910 C   0  0  1  0  0  0  0  0  0  0  0  0
   14.4940   70.1019   -9.6370 H   0  0  0  0  0  0  0  0  0  0  0  0
   16.1949   69.4953  -10.2049 H   0  0  0  0  0  0  0  0  0  0  0  0
   13.4855   71.5067   -6.7358 H   0  0  0  0  0  0  0  0  0  0  0  0
   19.8321   69.7879   -9.0130 O   0  0  0  0  0  0  0  0  0  0  0  0
   19.3447   71.0333   -8.5487 C   0  0  0  0  0  0  0  0  0  0  0  0
   20.6707   69.9240   -9.4818 H   0  0  0  0  0  0  0  0  0  0  0  0
 25 28  1  0
 25 24  1  0
 25 26  1  1
 25 27  2  0
  1  4  1  0
  1 24  1  0
  1  2  1  6
  1  3  2  0
  6 11  1  0
  6 12  1  0
 29 36  1  0
 29 37  1  0
  9  7  1  1
  7 13  1  0
 10  8  1  6
  8 14  1  0
 37 28  1  6
  4  5  1  0
 33 30  1  6
 30 38  1  0
 34 31  1  1
 31 39  1  0
 35 32  1  1
 32 40  1  0
 41 42  1  0
 41 43  1  0
 15 19  2  0
 16 22  2  0
 12 17  1  1
 17 19  1  0
 17 20  1  0
 18 19  1  0
 18 22  1  0
 18 23  1  0
  9 10  1  0
  9 11  1  0
 10 12  1  0
 11  5  1  6
 33 34  1  0
 33 35  1  0
 34 36  1  0
 35 37  1  0
 36 42  1  6
 20 21  2  0
 21 22  1  0
M  CHG  2   2  -1  26  -1
M  END
>  <COMPND>  (176) 
    8629 

>  <AUTHOR>  (176) 
    GENERATED BY OPEN BABEL 3.1.1

>  <MASTER>  (176) 
        0    0    0    0    0    0    0    0   58    0   58    0

>  <minimizedAffinity>  (176) 
-6.96942

>  <CNNscore>  (176) 
0.3593699038

>  <CNNaffinity>  (176) 
3.8382544518

>  <CNN_VS>  (176) 
1.3793531656

>  <CNNaffinity_variance>  (176) 
0.7830634713

$$$$
177
     RDKit          3D

 43 45  0  0  0  0  0  0  0  0999 V2000
   21.0218   73.6617   -6.4566 P   0  0  2  0  0  0  0  0  0  0  0  0
   20.8670   75.0881   -5.7091 O   0  0  0  0  0  0  0  0  0  0  0  0
   22.2879   73.4928   -7.2439 O   0  0  0  0  0  0  0  0  0  0  0  0
   19.6469   73.5121   -7.2965 O   0  0  0  0  0  0  0  0  0  0  0  0
   19.6679   72.7647   -8.5001 C   0  0  0  0  0  0  0  0  0  0  0  0
   18.2578   71.2032   -7.3394 O   0  0  0  0  0  0  0  0  0  0  0  0
   19.4647   69.0943   -9.0963 O   0  0  0  0  0  0  0  0  0  0  0  0
   17.0545   69.5522  -10.2870 O   0  0  0  0  0  0  0  0  0  0  0  0
   19.1364   70.4476   -9.4064 C   0  0  1  0  0  0  0  0  0  0  0  0
   17.6368   70.6058   -9.5471 C   0  0  2  0  0  0  0  0  0  0  0  0
   19.4317   71.2960   -8.1759 C   0  0  1  0  0  0  0  0  0  0  0  0
   17.1842   70.6216   -8.0969 C   0  0  2  0  0  0  0  0  0  0  0  0
   19.2847   68.5332   -9.8674 H   0  0  0  0  0  0  0  0  0  0  0  0
   17.3734   69.5850  -11.2024 H   0  0  0  0  0  0  0  0  0  0  0  0
   15.0199   69.8589   -6.4500 O   0  0  0  0  0  0  0  0  0  0  0  0
   12.6828   73.7096   -7.4256 O   0  0  0  0  0  0  0  0  0  0  0  0
   15.9976   71.4060   -7.9019 N   0  0  0  0  0  0  0  0  0  0  0  0
   13.8580   71.7770   -6.9370 N   0  0  0  0  0  0  0  0  0  0  0  0
   14.9689   70.9319   -7.0548 C   0  0  0  0  0  0  0  0  0  0  0  0
   15.8628   72.6307   -8.5467 C   0  0  0  0  0  0  0  0  0  0  0  0
   14.7965   73.4240   -8.4248 C   0  0  0  0  0  0  0  0  0  0  0  0
   13.6769   73.0025   -7.5582 C   0  0  0  0  0  0  0  0  0  0  0  0
   13.1287   71.4672   -6.3523 H   0  0  0  0  0  0  0  0  0  0  0  0
   20.8304   72.5985   -5.2541 O   0  0  0  0  0  0  0  0  0  0  0  0
   19.9388   72.6680   -3.9076 P   0  0  2  0  0  0  0  0  0  0  0  0
   19.8707   71.1245   -3.4276 O   0  0  0  0  0  0  0  0  0  0  0  0
   18.5986   73.3195   -4.0900 O   0  0  0  0  0  0  0  0  0  0  0  0
   20.8917   73.3903   -2.8235 O   0  0  0  0  0  0  0  0  0  0  0  0
   23.0976   74.1718   -3.1973 O   0  0  0  0  0  0  0  0  0  0  0  0
   23.4059   73.2167    0.8081 O   0  0  0  0  0  0  0  0  0  0  0  0
   23.3316   75.9744    0.0097 O   0  0  0  0  0  0  0  0  0  0  0  0
   21.8640   71.5260   -0.9649 O   0  0  0  0  0  0  0  0  0  0  0  0
   22.7495   73.6862   -0.3726 C   0  0  1  0  0  0  0  0  0  0  0  0
   23.5222   74.8960   -0.9019 C   0  0  1  0  0  0  0  0  0  0  0  0
   22.7280   72.5658   -1.4107 C   0  0  2  0  0  0  0  0  0  0  0  0
   23.0405   75.2905   -2.3046 C   0  0  1  0  0  0  0  0  0  0  0  0
   22.2810   73.0751   -2.7822 C   0  0  1  0  0  0  0  0  0  0  0  0
   23.4225   73.9232    1.4715 H   0  0  0  0  0  0  0  0  0  0  0  0
   23.6393   75.7121    0.8916 H   0  0  0  0  0  0  0  0  0  0  0  0
   22.1577   71.2120   -0.0960 H   0  0  0  0  0  0  0  0  0  0  0  0
   25.1607   76.3915   -2.2681 O   0  0  0  0  0  0  0  0  0  0  0  0
   23.9019   76.3935   -2.9159 C   0  0  0  0  0  0  0  0  0  0  0  0
   25.7198   77.0883   -2.6472 H   0  0  0  0  0  0  0  0  0  0  0  0
 25 28  1  0
 25 24  1  0
 25 26  1  1
 25 27  2  0
  1  4  1  0
  1 24  1  0
  1  2  1  1
  1  3  2  0
  6 11  1  0
  6 12  1  0
 29 36  1  0
 29 37  1  0
  9  7  1  1
  7 13  1  0
 10  8  1  6
  8 14  1  0
 37 28  1  1
  4  5  1  0
 33 30  1  1
 30 38  1  0
 34 31  1  1
 31 39  1  0
 35 32  1  1
 32 40  1  0
 41 42  1  0
 41 43  1  0
 15 19  2  0
 16 22  2  0
 12 17  1  6
 17 19  1  0
 17 20  1  0
 18 19  1  0
 18 22  1  0
 18 23  1  0
  9 10  1  0
  9 11  1  0
 10 12  1  0
 11  5  1  6
 33 34  1  0
 33 35  1  0
 34 36  1  0
 35 37  1  0
 36 42  1  6
 20 21  2  0
 21 22  1  0
M  CHG  2   2  -1  26  -1
M  END
>  <COMPND>  (177) 
    8629 

>  <AUTHOR>  (177) 
    GENERATED BY OPEN BABEL 3.1.1

>  <MASTER>  (177) 
        0    0    0    0    0    0    0    0   58    0   58    0

>  <minimizedAffinity>  (177) 
-7.11553

>  <CNNscore>  (177) 
0.3495358825

>  <CNNaffinity>  (177) 
3.9927787781

>  <CNN_VS>  (177) 
1.3956195116

>  <CNNaffinity_variance>  (177) 
0.2884458899

$$$$
178
     RDKit          3D

 43 45  0  0  0  0  0  0  0  0999 V2000
   21.8394   72.2607   -3.4857 P   0  0  2  0  0  0  0  0  0  0  0  0
   22.2367   70.7759   -2.9809 O   0  0  0  0  0  0  0  0  0  0  0  0
   22.9510   73.0257   -4.1417 O   0  0  0  0  0  0  0  0  0  0  0  0
   21.1860   72.9537   -2.1777 O   0  0  0  0  0  0  0  0  0  0  0  0
   21.9802   73.8489   -1.4189 C   0  0  0  0  0  0  0  0  0  0  0  0
   23.4008   73.4156    0.4699 O   0  0  0  0  0  0  0  0  0  0  0  0
   20.9023   73.4801    2.1266 O   0  0  0  0  0  0  0  0  0  0  0  0
   21.9760   75.9466    2.5739 O   0  0  0  0  0  0  0  0  0  0  0  0
   21.2465   74.2596    0.9824 C   0  0  1  0  0  0  0  0  0  0  0  0
   22.2765   75.3071    1.3502 C   0  0  2  0  0  0  0  0  0  0  0  0
   22.0274   73.3681    0.0249 C   0  0  1  0  0  0  0  0  0  0  0  0
   23.5520   74.4846    1.4182 C   0  0  2  0  0  0  0  0  0  0  0  0
   20.4025   74.0281    2.7525 H   0  0  0  0  0  0  0  0  0  0  0  0
   21.1565   76.4569    2.4795 H   0  0  0  0  0  0  0  0  0  0  0  0
   25.8598   74.6899    3.0337 O   0  0  0  0  0  0  0  0  0  0  0  0
   27.9596   77.4538    0.0018 O   0  0  0  0  0  0  0  0  0  0  0  0
   24.7168   75.2508    1.0752 N   0  0  0  0  0  0  0  0  0  0  0  0
   26.9036   76.0658    1.5227 N   0  0  0  0  0  0  0  0  0  0  0  0
   25.8221   75.2887    1.9568 C   0  0  0  0  0  0  0  0  0  0  0  0
   24.7553   75.9540   -0.1240 C   0  0  0  0  0  0  0  0  0  0  0  0
   25.7937   76.6915   -0.5228 C   0  0  0  0  0  0  0  0  0  0  0  0
   26.9889   76.7839    0.3404 C   0  0  0  0  0  0  0  0  0  0  0  0
   27.6847   76.1072    2.1208 H   0  0  0  0  0  0  0  0  0  0  0  0
   20.5574   71.9917   -4.4329 O   0  0  0  0  0  0  0  0  0  0  0  0
   19.1188   71.3294   -4.1093 P   0  0  2  0  0  0  0  0  0  0  0  0
   18.2778   72.5590   -3.4781 O   0  0  0  0  0  0  0  0  0  0  0  0
   19.1850   70.1109   -3.2349 O   0  0  0  0  0  0  0  0  0  0  0  0
   18.4498   71.0786   -5.5566 O   0  0  0  0  0  0  0  0  0  0  0  0
   16.8198   69.3736   -5.3265 O   0  0  0  0  0  0  0  0  0  0  0  0
   16.6274   69.9230   -9.4145 O   0  0  0  0  0  0  0  0  0  0  0  0
   14.4781   70.8586   -7.7554 O   0  0  0  0  0  0  0  0  0  0  0  0
   19.1829   70.0440   -8.0600 O   0  0  0  0  0  0  0  0  0  0  0  0
   16.7908   70.3257   -8.0520 C   0  0  1  0  0  0  0  0  0  0  0  0
   15.5059   69.9862   -7.2942 C   0  0  1  0  0  0  0  0  0  0  0  0
   17.9820   69.5819   -7.4510 C   0  0  2  0  0  0  0  0  0  0  0  0
   15.6986   70.1412   -5.7796 C   0  0  1  0  0  0  0  0  0  0  0  0
   18.0535   69.7625   -5.9337 C   0  0  1  0  0  0  0  0  0  0  0  0
   15.8730   70.3920   -9.8022 H   0  0  0  0  0  0  0  0  0  0  0  0
   14.3668   70.7513   -8.7131 H   0  0  0  0  0  0  0  0  0  0  0  0
   19.1252   69.9240   -9.0203 H   0  0  0  0  0  0  0  0  0  0  0  0
   13.6199   68.9676   -5.8832 O   0  0  0  0  0  0  0  0  0  0  0  0
   14.4807   69.6572   -4.9956 C   0  0  0  0  0  0  0  0  0  0  0  0
   12.8404   68.6535   -5.3979 H   0  0  0  0  0  0  0  0  0  0  0  0
 25 28  1  0
 25 24  1  0
 25 26  1  1
 25 27  2  0
  1  4  1  0
  1 24  1  0
  1  2  1  1
  1  3  2  0
  6 11  1  0
  6 12  1  0
 29 36  1  0
 29 37  1  0
  9  7  1  1
  7 13  1  0
 10  8  1  1
  8 14  1  0
 37 28  1  6
  4  5  1  0
 33 30  1  6
 30 38  1  0
 34 31  1  6
 31 39  1  0
 35 32  1  6
 32 40  1  0
 41 42  1  0
 41 43  1  0
 15 19  2  0
 16 22  2  0
 12 17  1  6
 17 19  1  0
 17 20  1  0
 18 19  1  0
 18 22  1  0
 18 23  1  0
  9 10  1  0
  9 11  1  0
 10 12  1  0
 11  5  1  6
 33 34  1  0
 33 35  1  0
 34 36  1  0
 35 37  1  0
 36 42  1  1
 20 21  2  0
 21 22  1  0
M  CHG  2   2  -1  26  -1
M  END
>  <COMPND>  (178) 
    8629 

>  <AUTHOR>  (178) 
    GENERATED BY OPEN BABEL 3.1.1

>  <MASTER>  (178) 
        0    0    0    0    0    0    0    0   58    0   58    0

>  <minimizedAffinity>  (178) 
-7.04905

>  <CNNscore>  (178) 
0.3472095132

>  <CNNaffinity>  (178) 
3.9107117653

>  <CNN_VS>  (178) 
1.3578363657

>  <CNNaffinity_variance>  (178) 
0.0798466951

$$$$
179
     RDKit          3D

 43 45  0  0  0  0  0  0  0  0999 V2000
   16.6293   74.6674   -5.2150 P   0  0  2  0  0  0  0  0  0  0  0  0
   15.3425   75.6353   -5.0582 O   0  0  0  0  0  0  0  0  0  0  0  0
   17.8985   75.3603   -5.6157 O   0  0  0  0  0  0  0  0  0  0  0  0
   16.1193   73.5020   -6.2148 O   0  0  0  0  0  0  0  0  0  0  0  0
   16.4289   73.6105   -7.5933 C   0  0  0  0  0  0  0  0  0  0  0  0
   17.6277   71.6381   -6.9251 O   0  0  0  0  0  0  0  0  0  0  0  0
   18.7823   71.6294   -9.6923 O   0  0  0  0  0  0  0  0  0  0  0  0
   16.8328   69.7295   -9.8556 O   0  0  0  0  0  0  0  0  0  0  0  0
   17.4731   71.9986   -9.2621 C   0  0  1  0  0  0  0  0  0  0  0  0
   16.6684   70.7653   -8.9086 C   0  0  2  0  0  0  0  0  0  0  0  0
   17.6012   72.6926   -7.9118 C   0  0  1  0  0  0  0  0  0  0  0  0
   17.2289   70.4039   -7.5436 C   0  0  2  0  0  0  0  0  0  0  0  0
   18.7261   71.1846  -10.5531 H   0  0  0  0  0  0  0  0  0  0  0  0
   16.4606   70.0075  -10.7070 H   0  0  0  0  0  0  0  0  0  0  0  0
   17.8612   68.8884   -5.2455 O   0  0  0  0  0  0  0  0  0  0  0  0
   13.4243   67.9603   -4.4126 O   0  0  0  0  0  0  0  0  0  0  0  0
   16.2586   69.7555   -6.7073 N   0  0  0  0  0  0  0  0  0  0  0  0
   15.6514   68.4277   -4.8325 N   0  0  0  0  0  0  0  0  0  0  0  0
   16.6809   69.0177   -5.5769 C   0  0  0  0  0  0  0  0  0  0  0  0
   14.9051   69.8548   -7.0110 C   0  0  0  0  0  0  0  0  0  0  0  0
   13.9359   69.2850   -6.2917 C   0  0  0  0  0  0  0  0  0  0  0  0
   14.2923   68.4965   -5.0945 C   0  0  0  0  0  0  0  0  0  0  0  0
   15.9219   67.9084   -4.0407 H   0  0  0  0  0  0  0  0  0  0  0  0
   16.6955   73.9162   -3.7852 O   0  0  0  0  0  0  0  0  0  0  0  0
   17.3487   74.3687   -2.3776 P   0  0  2  0  0  0  0  0  0  0  0  0
   16.2349   73.9238   -1.2917 O   0  0  0  0  0  0  0  0  0  0  0  0
   17.7304   75.8193   -2.3144 O   0  0  0  0  0  0  0  0  0  0  0  0
   18.5742   73.3439   -2.1477 O   0  0  0  0  0  0  0  0  0  0  0  0
   20.8678   73.5417   -2.7108 O   0  0  0  0  0  0  0  0  0  0  0  0
   20.3510   69.5128   -3.4537 O   0  0  0  0  0  0  0  0  0  0  0  0
   21.8436   70.3492   -1.1471 O   0  0  0  0  0  0  0  0  0  0  0  0
   18.2524   71.3872   -4.1334 O   0  0  0  0  0  0  0  0  0  0  0  0
   20.1333   70.7501   -2.7704 C   0  0  1  0  0  0  0  0  0  0  0  0
   21.4724   71.2281   -2.2054 C   0  0  1  0  0  0  0  0  0  0  0  0
   19.5699   71.7722   -3.7559 C   0  0  2  0  0  0  0  0  0  0  0  0
   21.3737   72.6709   -1.6921 C   0  0  1  0  0  0  0  0  0  0  0  0
   19.5609   73.1826   -3.1634 C   0  0  1  0  0  0  0  0  0  0  0  0
   20.7083   68.8592   -2.8334 H   0  0  0  0  0  0  0  0  0  0  0  0
   21.9019   69.4415   -1.4844 H   0  0  0  0  0  0  0  0  0  0  0  0
   18.2716   70.4929   -4.5072 H   0  0  0  0  0  0  0  0  0  0  0  0
   23.0359   72.7303    0.0233 O   0  0  0  0  0  0  0  0  0  0  0  0
   22.7339   73.2219   -1.2695 C   0  0  0  0  0  0  0  0  0  0  0  0
   23.8991   73.0725    0.3052 H   0  0  0  0  0  0  0  0  0  0  0  0
 25 28  1  0
 25 24  1  0
 25 26  1  1
 25 27  2  0
  1  4  1  0
  1 24  1  0
  1  2  1  1
  1  3  2  0
  6 11  1  0
  6 12  1  0
 29 36  1  0
 29 37  1  0
  9  7  1  1
  7 13  1  0
 10  8  1  6
  8 14  1  0
 37 28  1  1
  4  5  1  0
 33 30  1  6
 30 38  1  0
 34 31  1  1
 31 39  1  0
 35 32  1  1
 32 40  1  0
 41 42  1  0
 41 43  1  0
 15 19  2  0
 16 22  2  0
 12 17  1  1
 17 19  1  0
 17 20  1  0
 18 19  1  0
 18 22  1  0
 18 23  1  0
  9 10  1  0
  9 11  1  0
 10 12  1  0
 11  5  1  1
 33 34  1  0
 33 35  1  0
 34 36  1  0
 35 37  1  0
 36 42  1  6
 20 21  2  0
 21 22  1  0
M  CHG  2   2  -1  26  -1
M  END
>  <COMPND>  (179) 
    8629 

>  <AUTHOR>  (179) 
    GENERATED BY OPEN BABEL 3.1.1

>  <MASTER>  (179) 
        0    0    0    0    0    0    0    0   58    0   58    0

>  <minimizedAffinity>  (179) 
-6.73309

>  <CNNscore>  (179) 
0.3331599236

>  <CNNaffinity>  (179) 
4.0119423866

>  <CNN_VS>  (179) 
1.3366184235

>  <CNNaffinity_variance>  (179) 
0.5401066542

$$$$
180
     RDKit          3D

 43 45  0  0  0  0  0  0  0  0999 V2000
   21.0732   71.5498   -2.1282 P   0  0  2  0  0  0  0  0  0  0  0  0
   22.2712   70.9768   -1.2041 O   0  0  0  0  0  0  0  0  0  0  0  0
   20.1785   72.5503   -1.4576 O   0  0  0  0  0  0  0  0  0  0  0  0
   20.3435   70.2185   -2.6876 O   0  0  0  0  0  0  0  0  0  0  0  0
   19.6435   70.2971   -3.9172 C   0  0  0  0  0  0  0  0  0  0  0  0
   17.6898   71.3183   -4.8729 O   0  0  0  0  0  0  0  0  0  0  0  0
   16.1889   70.2011   -2.5298 O   0  0  0  0  0  0  0  0  0  0  0  0
   15.5772   68.4415   -4.5213 O   0  0  0  0  0  0  0  0  0  0  0  0
   17.2774   69.6344   -3.2573 C   0  0  1  0  0  0  0  0  0  0  0  0
   16.8049   69.1359   -4.6071 C   0  0  2  0  0  0  0  0  0  0  0  0
   18.2201   70.7657   -3.6483 C   0  0  1  0  0  0  0  0  0  0  0  0
   16.6917   70.4280   -5.3982 C   0  0  2  0  0  0  0  0  0  0  0  0
   15.5734   69.4976   -2.2690 H   0  0  0  0  0  0  0  0  0  0  0  0
   15.7013   67.6273   -4.0089 H   0  0  0  0  0  0  0  0  0  0  0  0
   14.8359   71.0500   -7.4347 O   0  0  0  0  0  0  0  0  0  0  0  0
   17.7180   69.6416  -10.7440 O   0  0  0  0  0  0  0  0  0  0  0  0
   16.9311   70.2343   -6.8005 N   0  0  0  0  0  0  0  0  0  0  0  0
   16.2726   70.3484   -9.0808 N   0  0  0  0  0  0  0  0  0  0  0  0
   15.9328   70.5784   -7.7415 C   0  0  0  0  0  0  0  0  0  0  0  0
   18.1449   69.7090   -7.2302 C   0  0  0  0  0  0  0  0  0  0  0  0
   18.4528   69.4945   -8.5110 C   0  0  0  0  0  0  0  0  0  0  0  0
   17.4649   69.8271   -9.5577 C   0  0  0  0  0  0  0  0  0  0  0  0
   15.5924   70.5802   -9.7541 H   0  0  0  0  0  0  0  0  0  0  0  0
   21.8534   72.1100   -3.4284 O   0  0  0  0  0  0  0  0  0  0  0  0
   21.8629   73.5752   -4.1112 P   0  0  2  0  0  0  0  0  0  0  0  0
   22.9145   73.4100   -5.3295 O   0  0  0  0  0  0  0  0  0  0  0  0
   22.1844   74.6938   -3.1629 O   0  0  0  0  0  0  0  0  0  0  0  0
   20.4231   73.7004   -4.8297 O   0  0  0  0  0  0  0  0  0  0  0  0
   19.4891   75.1224   -6.4796 O   0  0  0  0  0  0  0  0  0  0  0  0
   16.3643   75.1023   -3.7804 O   0  0  0  0  0  0  0  0  0  0  0  0
   16.1080   73.6708   -6.2569 O   0  0  0  0  0  0  0  0  0  0  0  0
   19.0967   75.1495   -2.8257 O   0  0  0  0  0  0  0  0  0  0  0  0
   17.4704   74.5473   -4.4972 C   0  0  1  0  0  0  0  0  0  0  0  0
   17.1506   74.6052   -5.9923 C   0  0  1  0  0  0  0  0  0  0  0  0
   18.7260   75.3589   -4.1841 C   0  0  2  0  0  0  0  0  0  0  0  0
   18.3892   74.2771   -6.8368 C   0  0  1  0  0  0  0  0  0  0  0  0
   19.8839   74.9889   -5.1128 C   0  0  1  0  0  0  0  0  0  0  0  0
   15.5639   74.5912   -3.9744 H   0  0  0  0  0  0  0  0  0  0  0  0
   15.3320   73.8889   -5.7170 H   0  0  0  0  0  0  0  0  0  0  0  0
   18.3555   75.3876   -2.2480 H   0  0  0  0  0  0  0  0  0  0  0  0
   17.6051   73.2835   -8.8633 O   0  0  0  0  0  0  0  0  0  0  0  0
   18.1350   74.4824   -8.3286 C   0  0  0  0  0  0  0  0  0  0  0  0
   17.4380   73.3994   -9.8122 H   0  0  0  0  0  0  0  0  0  0  0  0
 25 28  1  0
 25 24  1  0
 25 26  1  6
 25 27  2  0
  1  4  1  0
  1 24  1  0
  1  2  1  1
  1  3  2  0
  6 11  1  0
  6 12  1  0
 29 36  1  0
 29 37  1  0
  9  7  1  1
  7 13  1  0
 10  8  1  1
  8 14  1  0
 37 28  1  6
  4  5  1  0
 33 30  1  1
 30 38  1  0
 34 31  1  1
 31 39  1  0
 35 32  1  1
 32 40  1  0
 41 42  1  0
 41 43  1  0
 15 19  2  0
 16 22  2  0
 12 17  1  6
 17 19  1  0
 17 20  1  0
 18 19  1  0
 18 22  1  0
 18 23  1  0
  9 10  1  0
  9 11  1  0
 10 12  1  0
 11  5  1  6
 33 34  1  0
 33 35  1  0
 34 36  1  0
 35 37  1  0
 36 42  1  6
 20 21  2  0
 21 22  1  0
M  CHG  2   2  -1  26  -1
M  END
>  <COMPND>  (180) 
    8629 

>  <AUTHOR>  (180) 
    GENERATED BY OPEN BABEL 3.1.1

>  <MASTER>  (180) 
        0    0    0    0    0    0    0    0   58    0   58    0

>  <minimizedAffinity>  (180) 
-6.90247

>  <CNNscore>  (180) 
0.3255478144

>  <CNNaffinity>  (180) 
3.8357105255

>  <CNN_VS>  (180) 
1.2487071753

>  <CNNaffinity_variance>  (180) 
0.9040176272

$$$$
181
     RDKit          3D

 43 45  0  0  0  0  0  0  0  0999 V2000
   18.8413   73.8788   -7.9194 P   0  0  2  0  0  0  0  0  0  0  0  0
   17.4709   73.4538   -7.1719 O   0  0  0  0  0  0  0  0  0  0  0  0
   18.8682   75.2850   -8.4422 O   0  0  0  0  0  0  0  0  0  0  0  0
   19.0595   72.7149   -9.0219 O   0  0  0  0  0  0  0  0  0  0  0  0
   19.7375   71.5332   -8.6325 C   0  0  0  0  0  0  0  0  0  0  0  0
   18.8022   69.3917   -8.0732 O   0  0  0  0  0  0  0  0  0  0  0  0
   17.1696   69.6608  -10.5738 O   0  0  0  0  0  0  0  0  0  0  0  0
   15.3877   70.3405   -8.6245 O   0  0  0  0  0  0  0  0  0  0  0  0
   17.5702   70.6671   -9.6452 C   0  0  1  0  0  0  0  0  0  0  0  0
   16.7606   70.5580   -8.3699 C   0  0  2  0  0  0  0  0  0  0  0  0
   18.9740   70.3265   -9.1608 C   0  0  1  0  0  0  0  0  0  0  0  0
   17.4209   69.3779   -7.6775 C   0  0  2  0  0  0  0  0  0  0  0  0
   16.2759   69.8570  -10.8973 H   0  0  0  0  0  0  0  0  0  0  0  0
   15.0133   71.1189   -9.0656 H   0  0  0  0  0  0  0  0  0  0  0  0
   15.1030   68.8181   -6.1635 O   0  0  0  0  0  0  0  0  0  0  0  0
   17.2447   69.7656   -2.1940 O   0  0  0  0  0  0  0  0  0  0  0  0
   17.3448   69.4698   -6.2467 N   0  0  0  0  0  0  0  0  0  0  0  0
   16.1714   69.2901   -4.1882 N   0  0  0  0  0  0  0  0  0  0  0  0
   16.1328   69.1679   -5.5831 C   0  0  0  0  0  0  0  0  0  0  0  0
   18.4638   69.8553   -5.5165 C   0  0  0  0  0  0  0  0  0  0  0  0
   18.4837   69.9683   -4.1868 C   0  0  0  0  0  0  0  0  0  0  0  0
   17.2584   69.6709   -3.4174 C   0  0  0  0  0  0  0  0  0  0  0  0
   15.3383   69.0852   -3.7046 H   0  0  0  0  0  0  0  0  0  0  0  0
   19.9748   73.5500   -6.8148 O   0  0  0  0  0  0  0  0  0  0  0  0
   21.4351   74.1974   -6.5671 P   0  0  2  0  0  0  0  0  0  0  0  0
   21.1405   75.7882   -6.5666 O   0  0  0  0  0  0  0  0  0  0  0  0
   22.4774   73.7609   -7.5555 O   0  0  0  0  0  0  0  0  0  0  0  0
   21.7821   73.8466   -5.0304 O   0  0  0  0  0  0  0  0  0  0  0  0
   20.8284   72.1534   -3.6738 O   0  0  0  0  0  0  0  0  0  0  0  0
   21.5415   75.0016   -0.7703 O   0  0  0  0  0  0  0  0  0  0  0  0
   23.1774   72.6435   -0.8754 O   0  0  0  0  0  0  0  0  0  0  0  0
   20.6267   75.8122   -3.3944 O   0  0  0  0  0  0  0  0  0  0  0  0
   21.8062   74.2691   -1.9698 C   0  0  1  0  0  0  0  0  0  0  0  0
   21.9624   72.7916   -1.6049 C   0  0  1  0  0  0  0  0  0  0  0  0
   20.6425   74.4631   -2.9402 C   0  0  2  0  0  0  0  0  0  0  0  0
   21.9823   71.9099   -2.8609 C   0  0  1  0  0  0  0  0  0  0  0  0
   20.7325   73.5045   -4.1289 C   0  0  1  0  0  0  0  0  0  0  0  0
   22.2768   74.8830   -0.1501 H   0  0  0  0  0  0  0  0  0  0  0  0
   23.1521   73.2057   -0.0852 H   0  0  0  0  0  0  0  0  0  0  0  0
   20.5692   76.4090   -2.6326 H   0  0  0  0  0  0  0  0  0  0  0  0
   21.8633   70.2874   -1.1109 O   0  0  0  0  0  0  0  0  0  0  0  0
   21.9788   70.4223   -2.5155 C   0  0  0  0  0  0  0  0  0  0  0  0
   21.8594   69.3457   -0.8764 H   0  0  0  0  0  0  0  0  0  0  0  0
 25 28  1  0
 25 24  1  0
 25 26  1  1
 25 27  2  0
  1  4  1  0
  1 24  1  0
  1  2  1  1
  1  3  2  0
  6 11  1  0
  6 12  1  0
 29 36  1  0
 29 37  1  0
  9  7  1  6
  7 13  1  0
 10  8  1  6
  8 14  1  0
 37 28  1  1
  4  5  1  0
 33 30  1  1
 30 38  1  0
 34 31  1  6
 31 39  1  0
 35 32  1  6
 32 40  1  0
 41 42  1  0
 41 43  1  0
 15 19  2  0
 16 22  2  0
 12 17  1  1
 17 19  1  0
 17 20  1  0
 18 19  1  0
 18 22  1  0
 18 23  1  0
  9 10  1  0
  9 11  1  0
 10 12  1  0
 11  5  1  1
 33 34  1  0
 33 35  1  0
 34 36  1  0
 35 37  1  0
 36 42  1  1
 20 21  2  0
 21 22  1  0
M  CHG  2   2  -1  26  -1
M  END
>  <COMPND>  (181) 
    8629 

>  <AUTHOR>  (181) 
    GENERATED BY OPEN BABEL 3.1.1

>  <MASTER>  (181) 
        0    0    0    0    0    0    0    0   58    0   58    0

>  <minimizedAffinity>  (181) 
-8.14818

>  <CNNscore>  (181) 
0.7156439424

>  <CNNaffinity>  (181) 
4.4835147858

>  <CNN_VS>  (181) 
3.2086002827

>  <CNNaffinity_variance>  (181) 
0.7907345295

$$$$
182
     RDKit          3D

 43 45  0  0  0  0  0  0  0  0999 V2000
   21.2745   71.3527   -2.1232 P   0  0  2  0  0  0  0  0  0  0  0  0
   22.6693   70.7907   -1.5265 O   0  0  0  0  0  0  0  0  0  0  0  0
   20.5610   72.3384   -1.2453 O   0  0  0  0  0  0  0  0  0  0  0  0
   20.4445   70.0149   -2.4965 O   0  0  0  0  0  0  0  0  0  0  0  0
   19.6717   70.0080   -3.6841 C   0  0  0  0  0  0  0  0  0  0  0  0
   17.9180   71.3575   -4.6206 O   0  0  0  0  0  0  0  0  0  0  0  0
   16.2271   70.4181   -2.3295 O   0  0  0  0  0  0  0  0  0  0  0  0
   15.3710   68.8435   -4.3848 O   0  0  0  0  0  0  0  0  0  0  0  0
   17.2216   69.7093   -3.0669 C   0  0  1  0  0  0  0  0  0  0  0  0
   16.6944   69.3362   -4.4367 C   0  0  2  0  0  0  0  0  0  0  0  0
   18.3372   70.6882   -3.4112 C   0  0  1  0  0  0  0  0  0  0  0  0
   16.7984   70.6548   -5.1842 C   0  0  2  0  0  0  0  0  0  0  0  0
   15.5042   69.8134   -2.0979 H   0  0  0  0  0  0  0  0  0  0  0  0
   15.3572   68.0039   -3.8995 H   0  0  0  0  0  0  0  0  0  0  0  0
   14.7463   70.4086   -7.1093 O   0  0  0  0  0  0  0  0  0  0  0  0
   17.7782   69.9515  -10.5503 O   0  0  0  0  0  0  0  0  0  0  0  0
   17.0231   70.4710   -6.5903 N   0  0  0  0  0  0  0  0  0  0  0  0
   16.2576   70.1814   -8.8211 N   0  0  0  0  0  0  0  0  0  0  0  0
   15.9233   70.3575   -7.4723 C   0  0  0  0  0  0  0  0  0  0  0  0
   18.3224   70.4052   -7.0817 C   0  0  0  0  0  0  0  0  0  0  0  0
   18.6243   70.2356   -8.3706 C   0  0  0  0  0  0  0  0  0  0  0  0
   17.5332   70.1084   -9.3581 C   0  0  0  0  0  0  0  0  0  0  0  0
   15.5076   70.0995   -9.4540 H   0  0  0  0  0  0  0  0  0  0  0  0
   21.7045   71.9293   -3.5709 O   0  0  0  0  0  0  0  0  0  0  0  0
   22.0810   73.4272   -4.0478 P   0  0  2  0  0  0  0  0  0  0  0  0
   20.6523   74.1864   -4.0487 O   0  0  0  0  0  0  0  0  0  0  0  0
   22.8165   73.4902   -5.3551 O   0  0  0  0  0  0  0  0  0  0  0  0
   22.8805   74.0647   -2.7991 O   0  0  0  0  0  0  0  0  0  0  0  0
   21.8105   75.3532   -1.1224 O   0  0  0  0  0  0  0  0  0  0  0  0
   25.6331   76.8786   -0.7877 O   0  0  0  0  0  0  0  0  0  0  0  0
   24.6144   75.1433    1.2615 O   0  0  0  0  0  0  0  0  0  0  0  0
   24.5597   76.2321   -3.3972 O   0  0  0  0  0  0  0  0  0  0  0  0
   24.6499   75.8659   -1.0183 C   0  0  1  0  0  0  0  0  0  0  0  0
   23.8008   75.7249    0.2466 C   0  0  1  0  0  0  0  0  0  0  0  0
   23.7811   76.2749   -2.2063 C   0  0  2  0  0  0  0  0  0  0  0  0
   22.5636   74.8542   -0.0109 C   0  0  1  0  0  0  0  0  0  0  0  0
   22.5520   75.3746   -2.3437 C   0  0  1  0  0  0  0  0  0  0  0  0
   26.1884   76.6248   -0.0350 H   0  0  0  0  0  0  0  0  0  0  0  0
   25.3923   75.7026    1.4140 H   0  0  0  0  0  0  0  0  0  0  0  0
   25.3345   76.8062   -3.2977 H   0  0  0  0  0  0  0  0  0  0  0  0
   21.3043   73.4811    1.4850 O   0  0  0  0  0  0  0  0  0  0  0  0
   21.6217   74.8291    1.1909 C   0  0  0  0  0  0  0  0  0  0  0  0
   20.7056   73.4497    2.2481 H   0  0  0  0  0  0  0  0  0  0  0  0
 25 28  1  0
 25 24  1  0
 25 26  1  6
 25 27  2  0
  1  4  1  0
  1 24  1  0
  1  2  1  1
  1  3  2  0
  6 11  1  0
  6 12  1  0
 29 36  1  0
 29 37  1  0
  9  7  1  1
  7 13  1  0
 10  8  1  1
  8 14  1  0
 37 28  1  1
  4  5  1  0
 33 30  1  1
 30 38  1  0
 34 31  1  1
 31 39  1  0
 35 32  1  6
 32 40  1  0
 41 42  1  0
 41 43  1  0
 15 19  2  0
 16 22  2  0
 12 17  1  6
 17 19  1  0
 17 20  1  0
 18 19  1  0
 18 22  1  0
 18 23  1  0
  9 10  1  0
  9 11  1  0
 10 12  1  0
 11  5  1  6
 33 34  1  0
 33 35  1  0
 34 36  1  0
 35 37  1  0
 36 42  1  1
 20 21  2  0
 21 22  1  0
M  CHG  2   2  -1  26  -1
M  END
>  <COMPND>  (182) 
    8629 

>  <AUTHOR>  (182) 
    GENERATED BY OPEN BABEL 3.1.1

>  <MASTER>  (182) 
        0    0    0    0    0    0    0    0   58    0   58    0

>  <minimizedAffinity>  (182) 
-7.38280

>  <CNNscore>  (182) 
0.6614955068

>  <CNNaffinity>  (182) 
4.5732855797

>  <CNN_VS>  (182) 
3.0252077579

>  <CNNaffinity_variance>  (182) 
0.1290093660

$$$$
183
     RDKit          3D

 43 45  0  0  0  0  0  0  0  0999 V2000
   20.5391   73.6368   -7.6125 P   0  0  2  0  0  0  0  0  0  0  0  0
   19.3592   74.7436   -7.5960 O   0  0  0  0  0  0  0  0  0  0  0  0
   21.9231   74.1884   -7.7903 O   0  0  0  0  0  0  0  0  0  0  0  0
   20.0577   72.5726   -8.7322 O   0  0  0  0  0  0  0  0  0  0  0  0
   20.4227   71.2127   -8.5736 C   0  0  0  0  0  0  0  0  0  0  0  0
   18.8923   69.3917   -8.2337 O   0  0  0  0  0  0  0  0  0  0  0  0
   17.4862   70.3593  -10.6990 O   0  0  0  0  0  0  0  0  0  0  0  0
   15.9158   71.3385   -8.6960 O   0  0  0  0  0  0  0  0  0  0  0  0
   18.1306   71.1131   -9.6734 C   0  0  1  0  0  0  0  0  0  0  0  0
   17.2843   71.1230   -8.4175 C   0  0  2  0  0  0  0  0  0  0  0  0
   19.3606   70.3354   -9.2219 C   0  0  1  0  0  0  0  0  0  0  0  0
   17.5540   69.7419   -7.8448 C   0  0  2  0  0  0  0  0  0  0  0  0
   16.6977   70.8363  -11.0036 H   0  0  0  0  0  0  0  0  0  0  0  0
   15.7959   72.2303   -9.0580 H   0  0  0  0  0  0  0  0  0  0  0  0
   15.1508   69.3801   -6.4054 O   0  0  0  0  0  0  0  0  0  0  0  0
   17.3233   69.6598   -2.3504 O   0  0  0  0  0  0  0  0  0  0  0  0
   17.4626   69.7156   -6.4122 N   0  0  0  0  0  0  0  0  0  0  0  0
   16.2345   69.5195   -4.3875 N   0  0  0  0  0  0  0  0  0  0  0  0
   16.2073   69.5288   -5.7879 C   0  0  0  0  0  0  0  0  0  0  0  0
   18.6095   69.8736   -5.6417 C   0  0  0  0  0  0  0  0  0  0  0  0
   18.6182   69.8636   -4.3072 C   0  0  0  0  0  0  0  0  0  0  0  0
   17.3482   69.6737   -3.5772 C   0  0  0  0  0  0  0  0  0  0  0  0
   15.3715   69.3912   -3.9308 H   0  0  0  0  0  0  0  0  0  0  0  0
   20.3065   72.8369   -6.2272 O   0  0  0  0  0  0  0  0  0  0  0  0
   20.6062   73.2574   -4.6955 P   0  0  2  0  0  0  0  0  0  0  0  0
   20.8426   74.8552   -4.7888 O   0  0  0  0  0  0  0  0  0  0  0  0
   21.7358   72.5003   -4.0593 O   0  0  0  0  0  0  0  0  0  0  0  0
   19.1871   73.0986   -3.9431 O   0  0  0  0  0  0  0  0  0  0  0  0
   17.2678   74.1810   -4.8155 O   0  0  0  0  0  0  0  0  0  0  0  0
   16.0064   73.6384   -0.9212 O   0  0  0  0  0  0  0  0  0  0  0  0
   14.8649   72.0408   -3.0171 O   0  0  0  0  0  0  0  0  0  0  0  0
   18.7626   74.3390   -1.4619 O   0  0  0  0  0  0  0  0  0  0  0  0
   16.6953   73.2972   -2.1272 C   0  0  1  0  0  0  0  0  0  0  0  0
   15.6663   73.1947   -3.2548 C   0  0  1  0  0  0  0  0  0  0  0  0
   17.7262   74.3811   -2.4369 C   0  0  2  0  0  0  0  0  0  0  0  0
   16.3527   73.0959   -4.6238 C   0  0  1  0  0  0  0  0  0  0  0  0
   18.3120   74.2188   -3.8407 C   0  0  1  0  0  0  0  0  0  0  0  0
   15.3507   72.9539   -0.7186 H   0  0  0  0  0  0  0  0  0  0  0  0
   14.4376   72.1155   -2.1494 H   0  0  0  0  0  0  0  0  0  0  0  0
   18.3789   74.4431   -0.5777 H   0  0  0  0  0  0  0  0  0  0  0  0
   14.1596   73.7598   -5.3013 O   0  0  0  0  0  0  0  0  0  0  0  0
   15.3480   73.1515   -5.7726 C   0  0  0  0  0  0  0  0  0  0  0  0
   13.5111   73.8022   -6.0219 H   0  0  0  0  0  0  0  0  0  0  0  0
 25 28  1  0
 25 24  1  0
 25 26  1  6
 25 27  2  0
  1  4  1  0
  1 24  1  0
  1  2  1  1
  1  3  2  0
  6 11  1  0
  6 12  1  0
 29 36  1  0
 29 37  1  0
  9  7  1  6
  7 13  1  0
 10  8  1  6
  8 14  1  0
 37 28  1  1
  4  5  1  0
 33 30  1  1
 30 38  1  0
 34 31  1  1
 31 39  1  0
 35 32  1  1
 32 40  1  0
 41 42  1  0
 41 43  1  0
 15 19  2  0
 16 22  2  0
 12 17  1  1
 17 19  1  0
 17 20  1  0
 18 19  1  0
 18 22  1  0
 18 23  1  0
  9 10  1  0
  9 11  1  0
 10 12  1  0
 11  5  1  1
 33 34  1  0
 33 35  1  0
 34 36  1  0
 35 37  1  0
 36 42  1  6
 20 21  2  0
 21 22  1  0
M  CHG  2   2  -1  26  -1
M  END
>  <COMPND>  (183) 
    8629 

>  <AUTHOR>  (183) 
    GENERATED BY OPEN BABEL 3.1.1

>  <MASTER>  (183) 
        0    0    0    0    0    0    0    0   58    0   58    0

>  <minimizedAffinity>  (183) 
-5.95733

>  <CNNscore>  (183) 
0.5847001672

>  <CNNaffinity>  (183) 
4.0462746620

>  <CNN_VS>  (183) 
2.3658573627

>  <CNNaffinity_variance>  (183) 
0.5984117985

$$$$
184
     RDKit          3D

 43 45  0  0  0  0  0  0  0  0999 V2000
   19.1801   71.5207   -3.0714 P   0  0  2  0  0  0  0  0  0  0  0  0
   19.4391   69.9261   -2.9842 O   0  0  0  0  0  0  0  0  0  0  0  0
   17.8138   71.9654   -2.6391 O   0  0  0  0  0  0  0  0  0  0  0  0
   19.5948   71.8991   -4.5889 O   0  0  0  0  0  0  0  0  0  0  0  0
   19.8516   73.2572   -4.9009 C   0  0  0  0  0  0  0  0  0  0  0  0
   19.9230   72.2784   -7.0942 O   0  0  0  0  0  0  0  0  0  0  0  0
   21.1760   74.8488   -7.9963 O   0  0  0  0  0  0  0  0  0  0  0  0
   18.5864   75.1352   -8.8016 O   0  0  0  0  0  0  0  0  0  0  0  0
   20.1604   74.6350   -7.0174 C   0  0  1  0  0  0  0  0  0  0  0  0
   18.8443   74.3031   -7.6890 C   0  0  2  0  0  0  0  0  0  0  0  0
   20.4801   73.3375   -6.2854 C   0  0  1  0  0  0  0  0  0  0  0  0
   19.0482   72.8495   -8.0809 C   0  0  2  0  0  0  0  0  0  0  0  0
   20.9935   75.6722   -8.4767 H   0  0  0  0  0  0  0  0  0  0  0  0
   18.4639   76.0491   -8.5005 H   0  0  0  0  0  0  0  0  0  0  0  0
   18.2650   71.1047  -10.1594 O   0  0  0  0  0  0  0  0  0  0  0  0
   14.3067   70.0629   -8.0409 O   0  0  0  0  0  0  0  0  0  0  0  0
   17.8182   72.1091   -8.0982 N   0  0  0  0  0  0  0  0  0  0  0  0
   16.2948   70.5872   -9.1028 N   0  0  0  0  0  0  0  0  0  0  0  0
   17.5197   71.2609   -9.1899 C   0  0  0  0  0  0  0  0  0  0  0  0
   16.9232   72.2277   -7.0405 C   0  0  0  0  0  0  0  0  0  0  0  0
   15.7585   71.5794   -6.9732 C   0  0  0  0  0  0  0  0  0  0  0  0
   15.3709   70.6731   -8.0733 C   0  0  0  0  0  0  0  0  0  0  0  0
   16.0654   69.9910   -9.8522 H   0  0  0  0  0  0  0  0  0  0  0  0
   20.3947   72.1344   -2.1991 O   0  0  0  0  0  0  0  0  0  0  0  0
   21.8764   71.5646   -1.8940 P   0  0  2  0  0  0  0  0  0  0  0  0
   22.5814   71.5656   -3.3502 O   0  0  0  0  0  0  0  0  0  0  0  0
   21.8928   70.2339   -1.1990 O   0  0  0  0  0  0  0  0  0  0  0  0
   22.6117   72.7513   -1.0842 O   0  0  0  0  0  0  0  0  0  0  0  0
   22.2288   73.7243    1.0426 O   0  0  0  0  0  0  0  0  0  0  0  0
   23.0829   77.1465   -1.1045 O   0  0  0  0  0  0  0  0  0  0  0  0
   25.0022   76.1383    0.7791 O   0  0  0  0  0  0  0  0  0  0  0  0
   21.5330   75.0267   -2.3227 O   0  0  0  0  0  0  0  0  0  0  0  0
   23.2027   75.7657   -0.7519 C   0  0  1  0  0  0  0  0  0  0  0  0
   23.6547   75.6808    0.7073 C   0  0  1  0  0  0  0  0  0  0  0  0
   21.8480   75.0842   -0.9356 C   0  0  2  0  0  0  0  0  0  0  0  0
   23.5491   74.2445    1.2374 C   0  0  1  0  0  0  0  0  0  0  0  0
   21.8358   73.6793   -0.3305 C   0  0  1  0  0  0  0  0  0  0  0  0
   23.9398   77.5849   -0.9905 H   0  0  0  0  0  0  0  0  0  0  0  0
   25.0552   77.0461    0.4410 H   0  0  0  0  0  0  0  0  0  0  0  0
   21.5437   75.9222   -2.6939 H   0  0  0  0  0  0  0  0  0  0  0  0
   25.2433   74.0384    2.9095 O   0  0  0  0  0  0  0  0  0  0  0  0
   23.8441   74.1638    2.7335 C   0  0  0  0  0  0  0  0  0  0  0  0
   25.4460   73.9863    3.8571 H   0  0  0  0  0  0  0  0  0  0  0  0
 25 28  1  0
 25 24  1  0
 25 26  1  6
 25 27  2  0
  1  4  1  0
  1 24  1  0
  1  2  1  6
  1  3  2  0
  6 11  1  0
  6 12  1  0
 29 36  1  0
 29 37  1  0
  9  7  1  6
  7 13  1  0
 10  8  1  6
  8 14  1  0
 37 28  1  6
  4  5  1  0
 33 30  1  1
 30 38  1  0
 34 31  1  6
 31 39  1  0
 35 32  1  6
 32 40  1  0
 41 42  1  0
 41 43  1  0
 15 19  2  0
 16 22  2  0
 12 17  1  1
 17 19  1  0
 17 20  1  0
 18 19  1  0
 18 22  1  0
 18 23  1  0
  9 10  1  0
  9 11  1  0
 10 12  1  0
 11  5  1  1
 33 34  1  0
 33 35  1  0
 34 36  1  0
 35 37  1  0
 36 42  1  1
 20 21  2  0
 21 22  1  0
M  CHG  2   2  -1  26  -1
M  END
>  <COMPND>  (184) 
    8629 

>  <AUTHOR>  (184) 
    GENERATED BY OPEN BABEL 3.1.1

>  <MASTER>  (184) 
        0    0    0    0    0    0    0    0   58    0   58    0

>  <minimizedAffinity>  (184) 
-7.04044

>  <CNNscore>  (184) 
0.5520567894

>  <CNNaffinity>  (184) 
4.2810740471

>  <CNN_VS>  (184) 
2.3633959293

>  <CNNaffinity_variance>  (184) 
0.0062954165

$$$$
185
     RDKit          3D

 43 45  0  0  0  0  0  0  0  0999 V2000
   18.3112   73.7976   -7.0740 P   0  0  2  0  0  0  0  0  0  0  0  0
   16.8115   74.2158   -7.5137 O   0  0  0  0  0  0  0  0  0  0  0  0
   19.3407   74.8787   -7.2252 O   0  0  0  0  0  0  0  0  0  0  0  0
   18.5940   72.4372   -7.9029 O   0  0  0  0  0  0  0  0  0  0  0  0
   18.7479   71.2265   -7.1831 C   0  0  0  0  0  0  0  0  0  0  0  0
   17.3418   69.2917   -6.9525 O   0  0  0  0  0  0  0  0  0  0  0  0
   16.7244   69.6244   -9.8678 O   0  0  0  0  0  0  0  0  0  0  0  0
   14.5222   70.6953   -8.6679 O   0  0  0  0  0  0  0  0  0  0  0  0
   16.9438   70.6226   -8.8724 C   0  0  1  0  0  0  0  0  0  0  0  0
   15.7425   70.7242   -7.9559 C   0  0  2  0  0  0  0  0  0  0  0  0
   18.0235   70.1123   -7.9262 C   0  0  1  0  0  0  0  0  0  0  0  0
   15.9257   69.5106   -7.0605 C   0  0  2  0  0  0  0  0  0  0  0  0
   16.0389   69.9278  -10.4841 H   0  0  0  0  0  0  0  0  0  0  0  0
   14.4526   71.4879   -9.2226 H   0  0  0  0  0  0  0  0  0  0  0  0
   14.8082   67.4662   -5.4638 O   0  0  0  0  0  0  0  0  0  0  0  0
   13.8745   70.4019   -2.0358 O   0  0  0  0  0  0  0  0  0  0  0  0
   15.3835   69.7125   -5.7465 N   0  0  0  0  0  0  0  0  0  0  0  0
   14.3444   68.9296   -3.7581 N   0  0  0  0  0  0  0  0  0  0  0  0
   14.8452   68.6190   -5.0289 C   0  0  0  0  0  0  0  0  0  0  0  0
   15.3894   70.9835   -5.1822 C   0  0  0  0  0  0  0  0  0  0  0  0
   14.9068   71.2632   -3.9698 C   0  0  0  0  0  0  0  0  0  0  0  0
   14.3264   70.1768   -3.1543 C   0  0  0  0  0  0  0  0  0  0  0  0
   13.9639   68.1835   -3.2400 H   0  0  0  0  0  0  0  0  0  0  0  0
   18.1113   73.2660   -5.5606 O   0  0  0  0  0  0  0  0  0  0  0  0
   18.3888   73.9825   -4.1384 P   0  0  2  0  0  0  0  0  0  0  0  0
   16.9155   74.0768   -3.4767 O   0  0  0  0  0  0  0  0  0  0  0  0
   19.1067   75.2970   -4.2413 O   0  0  0  0  0  0  0  0  0  0  0  0
   19.1586   72.8668   -3.2622 O   0  0  0  0  0  0  0  0  0  0  0  0
   21.3469   72.9197   -4.1705 O   0  0  0  0  0  0  0  0  0  0  0  0
   21.9696   70.2233   -1.1058 O   0  0  0  0  0  0  0  0  0  0  0  0
   23.0389   72.8804   -0.8956 O   0  0  0  0  0  0  0  0  0  0  0  0
   19.4938   70.1594   -2.6045 O   0  0  0  0  0  0  0  0  0  0  0  0
   21.3879   71.3676   -1.7363 C   0  0  1  0  0  0  0  0  0  0  0  0
   22.5135   72.3368   -2.1034 C   0  0  1  0  0  0  0  0  0  0  0  0
   20.6350   70.9194   -2.9875 C   0  0  2  0  0  0  0  0  0  0  0  0
   22.0022   73.4591   -3.0166 C   0  0  1  0  0  0  0  0  0  0  0  0
   20.2137   72.1103   -3.8502 C   0  0  1  0  0  0  0  0  0  0  0  0
   22.4488   70.5010   -0.3103 H   0  0  0  0  0  0  0  0  0  0  0  0
   23.3578   72.1614   -0.3278 H   0  0  0  0  0  0  0  0  0  0  0  0
   19.7738   69.4083   -2.0592 H   0  0  0  0  0  0  0  0  0  0  0  0
   23.8399   73.6457   -4.5322 O   0  0  0  0  0  0  0  0  0  0  0  0
   23.1374   74.3466   -3.5225 C   0  0  0  0  0  0  0  0  0  0  0  0
   24.5653   74.1986   -4.8638 H   0  0  0  0  0  0  0  0  0  0  0  0
 25 28  1  0
 25 24  1  0
 25 26  1  1
 25 27  2  0
  1  4  1  0
  1 24  1  0
  1  2  1  6
  1  3  2  0
  6 11  1  0
  6 12  1  0
 29 36  1  0
 29 37  1  0
  9  7  1  6
  7 13  1  0
 10  8  1  6
  8 14  1  0
 37 28  1  1
  4  5  1  0
 33 30  1  6
 30 38  1  0
 34 31  1  1
 31 39  1  0
 35 32  1  1
 32 40  1  0
 41 42  1  0
 41 43  1  0
 15 19  2  0
 16 22  2  0
 12 17  1  1
 17 19  1  0
 17 20  1  0
 18 19  1  0
 18 22  1  0
 18 23  1  0
  9 10  1  0
  9 11  1  0
 10 12  1  0
 11  5  1  1
 33 34  1  0
 33 35  1  0
 34 36  1  0
 35 37  1  0
 36 42  1  6
 20 21  2  0
 21 22  1  0
M  CHG  2   2  -1  26  -1
M  END
>  <COMPND>  (185) 
    8629 

>  <AUTHOR>  (185) 
    GENERATED BY OPEN BABEL 3.1.1

>  <MASTER>  (185) 
        0    0    0    0    0    0    0    0   58    0   58    0

>  <minimizedAffinity>  (185) 
-7.65061

>  <CNNscore>  (185) 
0.5439093709

>  <CNNaffinity>  (185) 
4.3323378563

>  <CNN_VS>  (185) 
2.3563990593

>  <CNNaffinity_variance>  (185) 
0.3671737909

$$$$
186
     RDKit          3D

 43 45  0  0  0  0  0  0  0  0999 V2000
   18.8044   74.6519   -7.3171 P   0  0  2  0  0  0  0  0  0  0  0  0
   17.7367   75.1112   -6.1917 O   0  0  0  0  0  0  0  0  0  0  0  0
   19.4306   75.7738   -8.0920 O   0  0  0  0  0  0  0  0  0  0  0  0
   17.9977   73.5570   -8.1938 O   0  0  0  0  0  0  0  0  0  0  0  0
   16.6194   73.3619   -7.9296 C   0  0  0  0  0  0  0  0  0  0  0  0
   17.0873   71.0050   -7.9219 O   0  0  0  0  0  0  0  0  0  0  0  0
   14.3085   70.6399   -8.9875 O   0  0  0  0  0  0  0  0  0  0  0  0
   14.0151   70.0383   -6.3440 O   0  0  0  0  0  0  0  0  0  0  0  0
   14.7947   71.5924   -8.0434 C   0  0  1  0  0  0  0  0  0  0  0  0
   15.0530   70.9251   -6.7086 C   0  0  2  0  0  0  0  0  0  0  0  0
   16.1984   72.0024   -8.4709 C   0  0  1  0  0  0  0  0  0  0  0  0
   16.3697   70.2111   -6.9629 C   0  0  2  0  0  0  0  0  0  0  0  0
   13.4129   70.3633   -8.7356 H   0  0  0  0  0  0  0  0  0  0  0  0
   13.1989   70.5401   -6.1930 H   0  0  0  0  0  0  0  0  0  0  0  0
   16.0484   68.1706   -5.0365 O   0  0  0  0  0  0  0  0  0  0  0  0
   19.4722   69.8330   -2.4373 O   0  0  0  0  0  0  0  0  0  0  0  0
   17.1638   70.0864   -5.7732 N   0  0  0  0  0  0  0  0  0  0  0  0
   17.7536   68.9999   -3.7439 N   0  0  0  0  0  0  0  0  0  0  0  0
   16.9207   69.0256   -4.8699 C   0  0  0  0  0  0  0  0  0  0  0  0
   18.1707   71.0094   -5.5123 C   0  0  0  0  0  0  0  0  0  0  0  0
   18.9553   70.9716   -4.4333 C   0  0  0  0  0  0  0  0  0  0  0  0
   18.7669   69.8950   -3.4396 C   0  0  0  0  0  0  0  0  0  0  0  0
   17.6023   68.2700   -3.1005 H   0  0  0  0  0  0  0  0  0  0  0  0
   19.8496   73.7476   -6.4789 O   0  0  0  0  0  0  0  0  0  0  0  0
   21.3779   74.0291   -6.0339 P   0  0  2  0  0  0  0  0  0  0  0  0
   21.4052   75.6285   -5.7915 O   0  0  0  0  0  0  0  0  0  0  0  0
   22.4046   73.5332   -7.0107 O   0  0  0  0  0  0  0  0  0  0  0  0
   21.4973   73.3908   -4.5563 O   0  0  0  0  0  0  0  0  0  0  0  0
   23.4064   74.4136   -3.5941 O   0  0  0  0  0  0  0  0  0  0  0  0
   22.2939   71.9930   -0.4391 O   0  0  0  0  0  0  0  0  0  0  0  0
   21.8844   74.8301   -0.2626 O   0  0  0  0  0  0  0  0  0  0  0  0
   22.0562   71.0237   -3.1564 O   0  0  0  0  0  0  0  0  0  0  0  0
   22.0774   72.8381   -1.5724 C   0  0  1  0  0  0  0  0  0  0  0  0
   22.6806   74.2110   -1.2690 C   0  0  1  0  0  0  0  0  0  0  0  0
   22.7475   72.2146   -2.7953 C   0  0  2  0  0  0  0  0  0  0  0  0
   22.7259   75.0867   -2.5285 C   0  0  1  0  0  0  0  0  0  0  0  0
   22.7831   73.1859   -3.9765 C   0  0  1  0  0  0  0  0  0  0  0  0
   21.8705   72.3829    0.3407 H   0  0  0  0  0  0  0  0  0  0  0  0
   21.8637   74.2668    0.5270 H   0  0  0  0  0  0  0  0  0  0  0  0
   22.0409   70.4170   -2.4004 H   0  0  0  0  0  0  0  0  0  0  0  0
   24.6115   76.4308   -3.1174 O   0  0  0  0  0  0  0  0  0  0  0  0
   23.4663   76.4000   -2.2856 C   0  0  0  0  0  0  0  0  0  0  0  0
   25.0925   77.2612   -2.9738 H   0  0  0  0  0  0  0  0  0  0  0  0
 25 28  1  0
 25 24  1  0
 25 26  1  1
 25 27  2  0
  1  4  1  0
  1 24  1  0
  1  2  1  1
  1  3  2  0
  6 11  1  0
  6 12  1  0
 29 36  1  0
 29 37  1  0
  9  7  1  6
  7 13  1  0
 10  8  1  6
  8 14  1  0
 37 28  1  1
  4  5  1  0
 33 30  1  1
 30 38  1  0
 34 31  1  1
 31 39  1  0
 35 32  1  6
 32 40  1  0
 41 42  1  0
 41 43  1  0
 15 19  2  0
 16 22  2  0
 12 17  1  1
 17 19  1  0
 17 20  1  0
 18 19  1  0
 18 22  1  0
 18 23  1  0
  9 10  1  0
  9 11  1  0
 10 12  1  0
 11  5  1  1
 33 34  1  0
 33 35  1  0
 34 36  1  0
 35 37  1  0
 36 42  1  1
 20 21  2  0
 21 22  1  0
M  CHG  2   2  -1  26  -1
M  END
>  <COMPND>  (186) 
    8629 

>  <AUTHOR>  (186) 
    GENERATED BY OPEN BABEL 3.1.1

>  <MASTER>  (186) 
        0    0    0    0    0    0    0    0   58    0   58    0

>  <minimizedAffinity>  (186) 
-6.79813

>  <CNNscore>  (186) 
0.5081129074

>  <CNNaffinity>  (186) 
4.2523469925

>  <CNN_VS>  (186) 
2.1606724262

>  <CNNaffinity_variance>  (186) 
0.2678684294

$$$$
187
     RDKit          3D

 43 45  0  0  0  0  0  0  0  0999 V2000
   16.1569   74.1404   -5.8408 P   0  0  2  0  0  0  0  0  0  0  0  0
   14.7377   73.7841   -5.1506 O   0  0  0  0  0  0  0  0  0  0  0  0
   16.3940   75.6019   -6.0843 O   0  0  0  0  0  0  0  0  0  0  0  0
   16.1996   73.1936   -7.1522 O   0  0  0  0  0  0  0  0  0  0  0  0
   16.9702   73.6137   -8.2646 C   0  0  0  0  0  0  0  0  0  0  0  0
   18.1115   71.6867   -7.3941 O   0  0  0  0  0  0  0  0  0  0  0  0
   19.0856   71.2317  -10.1933 O   0  0  0  0  0  0  0  0  0  0  0  0
   17.0394   69.4420   -9.9776 O   0  0  0  0  0  0  0  0  0  0  0  0
   17.8260   71.7308   -9.7462 C   0  0  1  0  0  0  0  0  0  0  0  0
   16.9863   70.6058   -9.1780 C   0  0  2  0  0  0  0  0  0  0  0  0
   18.0737   72.5953   -8.5163 C   0  0  1  0  0  0  0  0  0  0  0  0
   17.6144   70.4041   -7.8095 C   0  0  2  0  0  0  0  0  0  0  0  0
   18.9530   70.6767  -10.9784 H   0  0  0  0  0  0  0  0  0  0  0  0
   16.6276   69.6211  -10.8374 H   0  0  0  0  0  0  0  0  0  0  0  0
   18.3148   69.3268   -5.2942 O   0  0  0  0  0  0  0  0  0  0  0  0
   13.9027   68.6282   -4.1600 O   0  0  0  0  0  0  0  0  0  0  0  0
   16.6689   69.9332   -6.8370 N   0  0  0  0  0  0  0  0  0  0  0  0
   16.1173   68.9800   -4.7314 N   0  0  0  0  0  0  0  0  0  0  0  0
   17.1247   69.4094   -5.6048 C   0  0  0  0  0  0  0  0  0  0  0  0
   15.3065   69.9938   -7.1092 C   0  0  0  0  0  0  0  0  0  0  0  0
   14.3586   69.5789   -6.2661 C   0  0  0  0  0  0  0  0  0  0  0  0
   14.7504   69.0183   -4.9568 C   0  0  0  0  0  0  0  0  0  0  0  0
   16.4113   68.6110   -3.8670 H   0  0  0  0  0  0  0  0  0  0  0  0
   17.2276   73.4406   -4.8524 O   0  0  0  0  0  0  0  0  0  0  0  0
   17.1665   73.1353   -3.2663 P   0  0  2  0  0  0  0  0  0  0  0  0
   16.4993   71.6630   -3.1972 O   0  0  0  0  0  0  0  0  0  0  0  0
   16.4448   74.1804   -2.4658 O   0  0  0  0  0  0  0  0  0  0  0  0
   18.7048   72.9063   -2.8348 O   0  0  0  0  0  0  0  0  0  0  0  0
   20.6245   72.9409   -4.2240 O   0  0  0  0  0  0  0  0  0  0  0  0
   21.8482   70.1102   -1.4780 O   0  0  0  0  0  0  0  0  0  0  0  0
   23.0252   72.7295   -1.4346 O   0  0  0  0  0  0  0  0  0  0  0  0
   19.0924   70.1674   -2.3623 O   0  0  0  0  0  0  0  0  0  0  0  0
   21.1751   71.2928   -1.9183 C   0  0  1  0  0  0  0  0  0  0  0  0
   22.2171   72.2475   -2.5045 C   0  0  1  0  0  0  0  0  0  0  0  0
   20.1389   70.9134   -2.9745 C   0  0  2  0  0  0  0  0  0  0  0  0
   21.5464   73.4176   -3.2367 C   0  0  1  0  0  0  0  0  0  0  0  0
   19.5696   72.1478   -3.6762 C   0  0  1  0  0  0  0  0  0  0  0  0
   22.5072   70.3440   -0.8068 H   0  0  0  0  0  0  0  0  0  0  0  0
   23.4425   71.9807   -0.9802 H   0  0  0  0  0  0  0  0  0  0  0  0
   19.4656   69.3886   -1.9219 H   0  0  0  0  0  0  0  0  0  0  0  0
   23.6589   73.4882   -4.3508 O   0  0  0  0  0  0  0  0  0  0  0  0
   22.5629   74.2960   -3.9628 C   0  0  0  0  0  0  0  0  0  0  0  0
   24.3139   74.0339   -4.8144 H   0  0  0  0  0  0  0  0  0  0  0  0
 25 28  1  0
 25 24  1  0
 25 26  1  6
 25 27  2  0
  1  4  1  0
  1 24  1  0
  1  2  1  1
  1  3  2  0
  6 11  1  0
  6 12  1  0
 29 36  1  0
 29 37  1  0
  9  7  1  1
  7 13  1  0
 10  8  1  6
  8 14  1  0
 37 28  1  1
  4  5  1  0
 33 30  1  6
 30 38  1  0
 34 31  1  1
 31 39  1  0
 35 32  1  1
 32 40  1  0
 41 42  1  0
 41 43  1  0
 15 19  2  0
 16 22  2  0
 12 17  1  1
 17 19  1  0
 17 20  1  0
 18 19  1  0
 18 22  1  0
 18 23  1  0
  9 10  1  0
  9 11  1  0
 10 12  1  0
 11  5  1  1
 33 34  1  0
 33 35  1  0
 34 36  1  0
 35 37  1  0
 36 42  1  6
 20 21  2  0
 21 22  1  0
M  CHG  2   2  -1  26  -1
M  END
>  <COMPND>  (187) 
    8629 

>  <AUTHOR>  (187) 
    GENERATED BY OPEN BABEL 3.1.1

>  <MASTER>  (187) 
        0    0    0    0    0    0    0    0   58    0   58    0

>  <minimizedAffinity>  (187) 
-6.91886

>  <CNNscore>  (187) 
0.4841632247

>  <CNNaffinity>  (187) 
4.2102942467

>  <CNN_VS>  (187) 
2.0384695530

>  <CNNaffinity_variance>  (187) 
0.6628698707

$$$$
188
     RDKit          3D

 43 45  0  0  0  0  0  0  0  0999 V2000
   19.6937   73.0070   -2.9924 P   0  0  2  0  0  0  0  0  0  0  0  0
   18.2379   73.3257   -2.3626 O   0  0  0  0  0  0  0  0  0  0  0  0
   20.3255   74.1465   -3.7366 O   0  0  0  0  0  0  0  0  0  0  0  0
   19.4592   71.6535   -3.8474 O   0  0  0  0  0  0  0  0  0  0  0  0
   19.1149   71.7700   -5.2169 C   0  0  0  0  0  0  0  0  0  0  0  0
   18.0935   69.6274   -4.8428 O   0  0  0  0  0  0  0  0  0  0  0  0
   18.3823   69.1835   -7.7941 O   0  0  0  0  0  0  0  0  0  0  0  0
   15.7547   69.8713   -7.5509 O   0  0  0  0  0  0  0  0  0  0  0  0
   18.0852   70.3868   -7.0876 C   0  0  1  0  0  0  0  0  0  0  0  0
   16.6583   70.3601   -6.5807 C   0  0  2  0  0  0  0  0  0  0  0  0
   18.8839   70.3785   -5.7902 C   0  0  1  0  0  0  0  0  0  0  0  0
   16.7701   69.4457   -5.3726 C   0  0  2  0  0  0  0  0  0  0  0  0
   17.8839   69.1662   -8.6268 H   0  0  0  0  0  0  0  0  0  0  0  0
   15.7187   70.4876   -8.2990 H   0  0  0  0  0  0  0  0  0  0  0  0
   14.2072   68.2764   -5.1680 O   0  0  0  0  0  0  0  0  0  0  0  0
   13.1760   70.7519   -1.4197 O   0  0  0  0  0  0  0  0  0  0  0  0
   15.8116   69.7659   -4.3528 N   0  0  0  0  0  0  0  0  0  0  0  0
   13.6959   69.5098   -3.3017 N   0  0  0  0  0  0  0  0  0  0  0  0
   14.5522   69.1221   -4.3401 C   0  0  0  0  0  0  0  0  0  0  0  0
   16.1241   70.7084   -3.3793 C   0  0  0  0  0  0  0  0  0  0  0  0
   15.2958   71.0679   -2.3964 C   0  0  0  0  0  0  0  0  0  0  0  0
   13.9603   70.4426   -2.3114 C   0  0  0  0  0  0  0  0  0  0  0  0
   12.8129   69.0749   -3.2730 H   0  0  0  0  0  0  0  0  0  0  0  0
   20.5368   72.4881   -1.7146 O   0  0  0  0  0  0  0  0  0  0  0  0
   21.9907   71.7886   -1.6151 P   0  0  2  0  0  0  0  0  0  0  0  0
   22.6513   72.0988   -3.0590 O   0  0  0  0  0  0  0  0  0  0  0  0
   21.9493   70.3322   -1.2531 O   0  0  0  0  0  0  0  0  0  0  0  0
   22.8182   72.7115   -0.5815 O   0  0  0  0  0  0  0  0  0  0  0  0
   22.4074   74.0570    1.3257 O   0  0  0  0  0  0  0  0  0  0  0  0
   24.5364   76.7678   -0.9480 O   0  0  0  0  0  0  0  0  0  0  0  0
   25.7658   75.5765    1.3580 O   0  0  0  0  0  0  0  0  0  0  0  0
   22.6490   74.9813   -2.2229 O   0  0  0  0  0  0  0  0  0  0  0  0
   24.1959   75.4736   -0.4436 C   0  0  1  0  0  0  0  0  0  0  0  0
   24.3718   75.4896    1.0762 C   0  0  1  0  0  0  0  0  0  0  0  0
   22.7478   75.1587   -0.8139 C   0  0  2  0  0  0  0  0  0  0  0  0
   23.7747   74.2291    1.7163 C   0  0  1  0  0  0  0  0  0  0  0  0
   22.2363   73.9144   -0.0858 C   0  0  1  0  0  0  0  0  0  0  0  0
   25.4549   76.9737   -0.7166 H   0  0  0  0  0  0  0  0  0  0  0  0
   26.1306   76.3764    0.9478 H   0  0  0  0  0  0  0  0  0  0  0  0
   22.9754   75.7759   -2.6724 H   0  0  0  0  0  0  0  0  0  0  0  0
   22.4634   74.2601    3.7134 O   0  0  0  0  0  0  0  0  0  0  0  0
   23.7978   74.2965    3.2417 C   0  0  0  0  0  0  0  0  0  0  0  0
   22.4626   74.3019    4.6829 H   0  0  0  0  0  0  0  0  0  0  0  0
 25 28  1  0
 25 24  1  0
 25 26  1  6
 25 27  2  0
  1  4  1  0
  1 24  1  0
  1  2  1  1
  1  3  2  0
  6 11  1  0
  6 12  1  0
 29 36  1  0
 29 37  1  0
  9  7  1  6
  7 13  1  0
 10  8  1  6
  8 14  1  0
 37 28  1  6
  4  5  1  0
 33 30  1  1
 30 38  1  0
 34 31  1  6
 31 39  1  0
 35 32  1  6
 32 40  1  0
 41 42  1  0
 41 43  1  0
 15 19  2  0
 16 22  2  0
 12 17  1  1
 17 19  1  0
 17 20  1  0
 18 19  1  0
 18 22  1  0
 18 23  1  0
  9 10  1  0
  9 11  1  0
 10 12  1  0
 11  5  1  1
 33 34  1  0
 33 35  1  0
 34 36  1  0
 35 37  1  0
 36 42  1  1
 20 21  2  0
 21 22  1  0
M  CHG  2   2  -1  26  -1
M  END
>  <COMPND>  (188) 
    8629 

>  <AUTHOR>  (188) 
    GENERATED BY OPEN BABEL 3.1.1

>  <MASTER>  (188) 
        0    0    0    0    0    0    0    0   58    0   58    0

>  <minimizedAffinity>  (188) 
-6.87941

>  <CNNscore>  (188) 
0.4695124030

>  <CNNaffinity>  (188) 
4.0939645767

>  <CNN_VS>  (188) 
1.9221671820

>  <CNNaffinity_variance>  (188) 
0.1592986286

$$$$
189
     RDKit          3D

 43 45  0  0  0  0  0  0  0  0999 V2000
   18.8508   74.0613   -7.5594 P   0  0  2  0  0  0  0  0  0  0  0  0
   17.3823   74.0518   -6.8803 O   0  0  0  0  0  0  0  0  0  0  0  0
   19.2204   75.3400   -8.2520 O   0  0  0  0  0  0  0  0  0  0  0  0
   18.8598   72.7334   -8.4838 O   0  0  0  0  0  0  0  0  0  0  0  0
   19.3819   71.5340   -7.9391 C   0  0  0  0  0  0  0  0  0  0  0  0
   18.1396   69.5401   -7.4341 O   0  0  0  0  0  0  0  0  0  0  0  0
   17.0879   69.7103  -10.2369 O   0  0  0  0  0  0  0  0  0  0  0  0
   15.0240   70.7162   -8.7655 O   0  0  0  0  0  0  0  0  0  0  0  0
   17.3905   70.7618   -9.3215 C   0  0  1  0  0  0  0  0  0  0  0  0
   16.3308   70.8407   -8.2424 C   0  0  2  0  0  0  0  0  0  0  0  0
   18.6239   70.3515   -8.5266 C   0  0  1  0  0  0  0  0  0  0  0  0
   16.7125   69.6793   -7.3404 C   0  0  2  0  0  0  0  0  0  0  0  0
   16.3037   69.9496  -10.7563 H   0  0  0  0  0  0  0  0  0  0  0  0
   14.8285   71.4787   -9.3323 H   0  0  0  0  0  0  0  0  0  0  0  0
   16.1038   67.6393   -5.4841 O   0  0  0  0  0  0  0  0  0  0  0  0
   15.3551   70.6841   -2.1062 O   0  0  0  0  0  0  0  0  0  0  0  0
   16.3556   69.9106   -5.9691 N   0  0  0  0  0  0  0  0  0  0  0  0
   15.7317   69.1571   -3.8036 N   0  0  0  0  0  0  0  0  0  0  0  0
   16.0676   68.8166   -5.1202 C   0  0  0  0  0  0  0  0  0  0  0  0
   16.2943   71.2104   -5.4788 C   0  0  0  0  0  0  0  0  0  0  0  0
   15.9711   71.5183   -4.2210 C   0  0  0  0  0  0  0  0  0  0  0  0
   15.6559   70.4335   -3.2692 C   0  0  0  0  0  0  0  0  0  0  0  0
   15.5267   68.4112   -3.1941 H   0  0  0  0  0  0  0  0  0  0  0  0
   19.8214   73.6562   -6.3319 O   0  0  0  0  0  0  0  0  0  0  0  0
   21.3602   74.0430   -6.0232 P   0  0  2  0  0  0  0  0  0  0  0  0
   21.2912   75.6322   -5.7275 O   0  0  0  0  0  0  0  0  0  0  0  0
   22.3218   73.6564   -7.1094 O   0  0  0  0  0  0  0  0  0  0  0  0
   21.6694   73.3743   -4.5871 O   0  0  0  0  0  0  0  0  0  0  0  0
   19.8286   72.3641   -3.4882 O   0  0  0  0  0  0  0  0  0  0  0  0
   22.4355   72.6333   -0.2971 O   0  0  0  0  0  0  0  0  0  0  0  0
   21.8954   70.0700   -1.4745 O   0  0  0  0  0  0  0  0  0  0  0  0
   22.3055   74.7751   -2.2402 O   0  0  0  0  0  0  0  0  0  0  0  0
   22.0670   72.4479   -1.6666 C   0  0  1  0  0  0  0  0  0  0  0  0
   21.1315   71.2404   -1.7523 C   0  0  1  0  0  0  0  0  0  0  0  0
   21.3657   73.7082   -2.1697 C   0  0  2  0  0  0  0  0  0  0  0  0
   20.4838   71.1388   -3.1398 C   0  0  1  0  0  0  0  0  0  0  0  0
   20.7138   73.4848   -3.5355 C   0  0  1  0  0  0  0  0  0  0  0  0
   22.8818   71.8368    0.0283 H   0  0  0  0  0  0  0  0  0  0  0  0
   22.2993   70.1471   -0.5958 H   0  0  0  0  0  0  0  0  0  0  0  0
   22.7109   74.9067   -1.3694 H   0  0  0  0  0  0  0  0  0  0  0  0
   19.3392   69.5714   -4.5334 O   0  0  0  0  0  0  0  0  0  0  0  0
   19.4287   70.0363   -3.1991 C   0  0  0  0  0  0  0  0  0  0  0  0
   18.6716   68.8691   -4.5862 H   0  0  0  0  0  0  0  0  0  0  0  0
 25 28  1  0
 25 24  1  0
 25 26  1  1
 25 27  2  0
  1  4  1  0
  1 24  1  0
  1  2  1  1
  1  3  2  0
  6 11  1  0
  6 12  1  0
 29 36  1  0
 29 37  1  0
  9  7  1  6
  7 13  1  0
 10  8  1  6
  8 14  1  0
 37 28  1  6
  4  5  1  0
 33 30  1  1
 30 38  1  0
 34 31  1  6
 31 39  1  0
 35 32  1  6
 32 40  1  0
 41 42  1  0
 41 43  1  0
 15 19  2  0
 16 22  2  0
 12 17  1  1
 17 19  1  0
 17 20  1  0
 18 19  1  0
 18 22  1  0
 18 23  1  0
  9 10  1  0
  9 11  1  0
 10 12  1  0
 11  5  1  1
 33 34  1  0
 33 35  1  0
 34 36  1  0
 35 37  1  0
 36 42  1  1
 20 21  2  0
 21 22  1  0
M  CHG  2   2  -1  26  -1
M  END
>  <COMPND>  (189) 
    8629 

>  <AUTHOR>  (189) 
    GENERATED BY OPEN BABEL 3.1.1

>  <MASTER>  (189) 
        0    0    0    0    0    0    0    0   58    0   58    0

>  <minimizedAffinity>  (189) 
-7.96219

>  <CNNscore>  (189) 
0.4562101066

>  <CNNaffinity>  (189) 
4.1335744858

>  <CNN_VS>  (189) 
1.8857784271

>  <CNNaffinity_variance>  (189) 
0.7636775374

$$$$
190
     RDKit          3D

 43 45  0  0  0  0  0  0  0  0999 V2000
   21.2288   71.2948   -2.1909 P   0  0  2  0  0  0  0  0  0  0  0  0
   22.2060   71.2047   -3.4771 O   0  0  0  0  0  0  0  0  0  0  0  0
   21.9111   71.1346   -0.8641 O   0  0  0  0  0  0  0  0  0  0  0  0
   20.0610   70.2227   -2.5144 O   0  0  0  0  0  0  0  0  0  0  0  0
   19.3977   70.3020   -3.7640 C   0  0  0  0  0  0  0  0  0  0  0  0
   17.5097   71.3817   -4.7855 O   0  0  0  0  0  0  0  0  0  0  0  0
   15.8999   70.3275   -2.4860 O   0  0  0  0  0  0  0  0  0  0  0  0
   15.2932   68.5778   -4.4878 O   0  0  0  0  0  0  0  0  0  0  0  0
   16.9913   69.7212   -3.1762 C   0  0  1  0  0  0  0  0  0  0  0  0
   16.5452   69.2310   -4.5379 C   0  0  2  0  0  0  0  0  0  0  0  0
   17.9827   70.8187   -3.5423 C   0  0  1  0  0  0  0  0  0  0  0  0
   16.4997   70.5217   -5.3380 C   0  0  2  0  0  0  0  0  0  0  0  0
   15.2535   69.6460   -2.2415 H   0  0  0  0  0  0  0  0  0  0  0  0
   15.3741   67.7629   -3.9681 H   0  0  0  0  0  0  0  0  0  0  0  0
   14.6066   70.8514   -7.4082 O   0  0  0  0  0  0  0  0  0  0  0  0
   17.6734   69.6899  -10.6465 O   0  0  0  0  0  0  0  0  0  0  0  0
   16.7765   70.3125   -6.7312 N   0  0  0  0  0  0  0  0  0  0  0  0
   16.1352   70.2730   -9.0189 N   0  0  0  0  0  0  0  0  0  0  0  0
   15.7552   70.5042   -7.6907 C   0  0  0  0  0  0  0  0  0  0  0  0
   18.0490   69.9220   -7.1339 C   0  0  0  0  0  0  0  0  0  0  0  0
   18.3949   69.7042   -8.4044 C   0  0  0  0  0  0  0  0  0  0  0  0
   17.3865   69.8824   -9.4690 C   0  0  0  0  0  0  0  0  0  0  0  0
   15.4401   70.4000   -9.7048 H   0  0  0  0  0  0  0  0  0  0  0  0
   20.4855   72.7152   -2.3979 O   0  0  0  0  0  0  0  0  0  0  0  0
   21.0710   74.2207   -2.4593 P   0  0  2  0  0  0  0  0  0  0  0  0
   22.6732   73.9967   -2.4411 O   0  0  0  0  0  0  0  0  0  0  0  0
   20.5597   75.1245   -1.3750 O   0  0  0  0  0  0  0  0  0  0  0  0
   20.7468   74.7242   -3.9581 O   0  0  0  0  0  0  0  0  0  0  0  0
   19.1209   74.1103   -5.5693 O   0  0  0  0  0  0  0  0  0  0  0  0
   22.4059   74.4592   -8.0467 O   0  0  0  0  0  0  0  0  0  0  0  0
   20.3399   76.4518   -8.1423 O   0  0  0  0  0  0  0  0  0  0  0  0
   22.7074   73.3268   -5.3998 O   0  0  0  0  0  0  0  0  0  0  0  0
   21.5710   74.7942   -6.9349 C   0  0  1  0  0  0  0  0  0  0  0  0
   20.1978   75.2023   -7.4722 C   0  0  1  0  0  0  0  0  0  0  0  0
   21.4499   73.5789   -6.0176 C   0  0  2  0  0  0  0  0  0  0  0  0
   19.1711   75.3182   -6.3376 C   0  0  1  0  0  0  0  0  0  0  0  0
   20.3677   73.7789   -4.9550 C   0  0  1  0  0  0  0  0  0  0  0  0
   22.4873   75.2268   -8.6329 H   0  0  0  0  0  0  0  0  0  0  0  0
   20.9913   76.3651   -8.8560 H   0  0  0  0  0  0  0  0  0  0  0  0
   23.3838   73.2017   -6.0829 H   0  0  0  0  0  0  0  0  0  0  0  0
   17.6898   75.0993   -8.1995 O   0  0  0  0  0  0  0  0  0  0  0  0
   17.7606   75.5696   -6.8661 C   0  0  0  0  0  0  0  0  0  0  0  0
   16.7975   75.2524   -8.5489 H   0  0  0  0  0  0  0  0  0  0  0  0
 25 28  1  0
 25 24  1  0
 25 26  1  6
 25 27  2  0
  1  4  1  0
  1 24  1  0
  1  2  1  6
  1  3  2  0
  6 11  1  0
  6 12  1  0
 29 36  1  0
 29 37  1  0
  9  7  1  1
  7 13  1  0
 10  8  1  1
  8 14  1  0
 37 28  1  1
  4  5  1  0
 33 30  1  6
 30 38  1  0
 34 31  1  1
 31 39  1  0
 35 32  1  1
 32 40  1  0
 41 42  1  0
 41 43  1  0
 15 19  2  0
 16 22  2  0
 12 17  1  6
 17 19  1  0
 17 20  1  0
 18 19  1  0
 18 22  1  0
 18 23  1  0
  9 10  1  0
  9 11  1  0
 10 12  1  0
 11  5  1  6
 33 34  1  0
 33 35  1  0
 34 36  1  0
 35 37  1  0
 36 42  1  6
 20 21  2  0
 21 22  1  0
M  CHG  2   2  -1  26  -1
M  END
>  <COMPND>  (190) 
    8629 

>  <AUTHOR>  (190) 
    GENERATED BY OPEN BABEL 3.1.1

>  <MASTER>  (190) 
        0    0    0    0    0    0    0    0   58    0   58    0

>  <minimizedAffinity>  (190) 
-7.58278

>  <CNNscore>  (190) 
0.4482164681

>  <CNNaffinity>  (190) 
4.1009330750

>  <CNN_VS>  (190) 
1.8381057978

>  <CNNaffinity_variance>  (190) 
0.5520771742

$$$$
191
     RDKit          3D

 43 45  0  0  0  0  0  0  0  0999 V2000
   19.7349   70.4316   -3.2198 P   0  0  2  0  0  0  0  0  0  0  0  0
   19.6857   69.9715   -4.7701 O   0  0  0  0  0  0  0  0  0  0  0  0
   20.9442   69.9714   -2.4602 O   0  0  0  0  0  0  0  0  0  0  0  0
   18.3080   69.9517   -2.6268 O   0  0  0  0  0  0  0  0  0  0  0  0
   17.3803   69.3422   -3.5075 C   0  0  0  0  0  0  0  0  0  0  0  0
   16.3607   71.0885   -4.8054 O   0  0  0  0  0  0  0  0  0  0  0  0
   13.7828   70.3047   -3.4898 O   0  0  0  0  0  0  0  0  0  0  0  0
   13.5867   69.1167   -5.9367 O   0  0  0  0  0  0  0  0  0  0  0  0
   14.8710   69.4807   -3.9046 C   0  0  1  0  0  0  0  0  0  0  0  0
   14.8797   69.3408   -5.4126 C   0  0  2  0  0  0  0  0  0  0  0  0
   16.1633   70.2462   -3.6488 C   0  0  1  0  0  0  0  0  0  0  0  0
   15.4648   70.6731   -5.8493 C   0  0  2  0  0  0  0  0  0  0  0  0
   12.9464   69.8368   -3.6432 H   0  0  0  0  0  0  0  0  0  0  0  0
   13.2580   68.2571   -5.6305 H   0  0  0  0  0  0  0  0  0  0  0  0
   15.1441   72.4210   -8.0447 O   0  0  0  0  0  0  0  0  0  0  0  0
   18.3282   70.1907  -10.5201 O   0  0  0  0  0  0  0  0  0  0  0  0
   16.1974   70.5725   -7.0799 N   0  0  0  0  0  0  0  0  0  0  0  0
   16.7299   71.3091   -9.2754 N   0  0  0  0  0  0  0  0  0  0  0  0
   15.9603   71.5003   -8.1208 C   0  0  0  0  0  0  0  0  0  0  0  0
   17.1391   69.5627   -7.2453 C   0  0  0  0  0  0  0  0  0  0  0  0
   17.8639   69.3933   -8.3531 C   0  0  0  0  0  0  0  0  0  0  0  0
   17.6771   70.3201   -9.4881 C   0  0  0  0  0  0  0  0  0  0  0  0
   16.5815   71.9433  -10.0140 H   0  0  0  0  0  0  0  0  0  0  0  0
   19.5687   72.0369   -3.3117 O   0  0  0  0  0  0  0  0  0  0  0  0
   20.6699   73.2116   -3.4540 P   0  0  2  0  0  0  0  0  0  0  0  0
   22.0099   72.4139   -3.8851 O   0  0  0  0  0  0  0  0  0  0  0  0
   20.8238   74.0628   -2.2269 O   0  0  0  0  0  0  0  0  0  0  0  0
   20.2337   74.0221   -4.7798 O   0  0  0  0  0  0  0  0  0  0  0  0
   18.2818   75.2725   -5.2728 O   0  0  0  0  0  0  0  0  0  0  0  0
   18.8889   73.5161   -8.9602 O   0  0  0  0  0  0  0  0  0  0  0  0
   19.4238   76.3170   -8.6185 O   0  0  0  0  0  0  0  0  0  0  0  0
   19.3912   72.0068   -6.5416 O   0  0  0  0  0  0  0  0  0  0  0  0
   19.2806   74.1059   -7.7176 C   0  0  1  0  0  0  0  0  0  0  0  0
   18.7192   75.5281   -7.6638 C   0  0  1  0  0  0  0  0  0  0  0  0
   18.7261   73.2651   -6.5692 C   0  0  2  0  0  0  0  0  0  0  0  0
   18.8676   76.1295   -6.2597 C   0  0  1  0  0  0  0  0  0  0  0  0
   18.8800   73.9758   -5.2233 C   0  0  1  0  0  0  0  0  0  0  0  0
   19.2383   74.0449   -9.6936 H   0  0  0  0  0  0  0  0  0  0  0  0
   19.3224   75.9262   -9.5006 H   0  0  0  0  0  0  0  0  0  0  0  0
   19.2861   71.5668   -7.3991 H   0  0  0  0  0  0  0  0  0  0  0  0
   17.1946   77.5786   -7.1599 O   0  0  0  0  0  0  0  0  0  0  0  0
   18.1740   77.4849   -6.1419 C   0  0  0  0  0  0  0  0  0  0  0  0
   16.7448   78.4362   -7.0970 H   0  0  0  0  0  0  0  0  0  0  0  0
 25 28  1  0
 25 24  1  0
 25 26  1  6
 25 27  2  0
  1  4  1  0
  1 24  1  0
  1  2  1  6
  1  3  2  0
  6 11  1  0
  6 12  1  0
 29 36  1  0
 29 37  1  0
  9  7  1  6
  7 13  1  0
 10  8  1  6
  8 14  1  0
 37 28  1  6
  4  5  1  0
 33 30  1  6
 30 38  1  0
 34 31  1  6
 31 39  1  0
 35 32  1  1
 32 40  1  0
 41 42  1  0
 41 43  1  0
 15 19  2  0
 16 22  2  0
 12 17  1  6
 17 19  1  0
 17 20  1  0
 18 19  1  0
 18 22  1  0
 18 23  1  0
  9 10  1  0
  9 11  1  0
 10 12  1  0
 11  5  1  6
 33 34  1  0
 33 35  1  0
 34 36  1  0
 35 37  1  0
 36 42  1  6
 20 21  2  0
 21 22  1  0
M  CHG  2   2  -1  26  -1
M  END
>  <COMPND>  (191) 
    8629 

>  <AUTHOR>  (191) 
    GENERATED BY OPEN BABEL 3.1.1

>  <MASTER>  (191) 
        0    0    0    0    0    0    0    0   58    0   58    0

>  <minimizedAffinity>  (191) 
-6.33752

>  <CNNscore>  (191) 
0.4353822172

>  <CNNaffinity>  (191) 
4.0444970131

>  <CNN_VS>  (191) 
1.7609020472

>  <CNNaffinity_variance>  (191) 
0.6796150208

$$$$
192
     RDKit          3D

 43 45  0  0  0  0  0  0  0  0999 V2000
   21.0692   71.2256   -2.0522 P   0  0  2  0  0  0  0  0  0  0  0  0
   22.3145   70.5087   -1.3088 O   0  0  0  0  0  0  0  0  0  0  0  0
   20.3273   72.2299   -1.2201 O   0  0  0  0  0  0  0  0  0  0  0  0
   20.1882   69.9900   -2.6134 O   0  0  0  0  0  0  0  0  0  0  0  0
   19.5198   70.1443   -3.8532 C   0  0  0  0  0  0  0  0  0  0  0  0
   17.6776   71.3286   -4.8419 O   0  0  0  0  0  0  0  0  0  0  0  0
   16.0636   70.4027   -2.4906 O   0  0  0  0  0  0  0  0  0  0  0  0
   15.2991   68.6724   -4.4548 O   0  0  0  0  0  0  0  0  0  0  0  0
   17.0976   69.7217   -3.1996 C   0  0  1  0  0  0  0  0  0  0  0  0
   16.5877   69.2454   -4.5437 C   0  0  2  0  0  0  0  0  0  0  0  0
   18.1458   70.7509   -3.6036 C   0  0  1  0  0  0  0  0  0  0  0  0
   16.6025   70.5275   -5.3587 C   0  0  2  0  0  0  0  0  0  0  0  0
   15.3825   69.7657   -2.2219 H   0  0  0  0  0  0  0  0  0  0  0  0
   15.3421   67.8598   -3.9271 H   0  0  0  0  0  0  0  0  0  0  0  0
   14.7793   71.1910   -7.4115 O   0  0  0  0  0  0  0  0  0  0  0  0
   17.5832   69.5529  -10.6820 O   0  0  0  0  0  0  0  0  0  0  0  0
   16.8306   70.2859   -6.7555 N   0  0  0  0  0  0  0  0  0  0  0  0
   16.1770   70.3749   -9.0383 N   0  0  0  0  0  0  0  0  0  0  0  0
   15.8505   70.6563   -7.7055 C   0  0  0  0  0  0  0  0  0  0  0  0
   18.0156   69.6884   -7.1709 C   0  0  0  0  0  0  0  0  0  0  0  0
   18.3112   69.4258   -8.4457 C   0  0  0  0  0  0  0  0  0  0  0  0
   17.3408   69.7815   -9.5010 C   0  0  0  0  0  0  0  0  0  0  0  0
   15.5090   70.6238   -9.7177 H   0  0  0  0  0  0  0  0  0  0  0  0
   21.7438   71.8287   -3.3917 O   0  0  0  0  0  0  0  0  0  0  0  0
   21.8014   73.3396   -3.9634 P   0  0  2  0  0  0  0  0  0  0  0  0
   22.9056   73.2483   -5.1424 O   0  0  0  0  0  0  0  0  0  0  0  0
   22.0923   74.3810   -2.9219 O   0  0  0  0  0  0  0  0  0  0  0  0
   20.3974   73.5385   -4.7343 O   0  0  0  0  0  0  0  0  0  0  0  0
   19.9645   74.2572   -6.9507 O   0  0  0  0  0  0  0  0  0  0  0  0
   16.7589   76.0296   -5.0444 O   0  0  0  0  0  0  0  0  0  0  0  0
   16.3202   73.7474   -6.7317 O   0  0  0  0  0  0  0  0  0  0  0  0
   19.3444   75.9444   -3.7454 O   0  0  0  0  0  0  0  0  0  0  0  0
   17.7363   75.0117   -5.2768 C   0  0  1  0  0  0  0  0  0  0  0  0
   17.5435   74.4771   -6.6973 C   0  0  1  0  0  0  0  0  0  0  0  0
   19.1312   75.6124   -5.1131 C   0  0  2  0  0  0  0  0  0  0  0  0
   18.7145   73.5770   -7.1142 C   0  0  1  0  0  0  0  0  0  0  0  0
   20.2195   74.6549   -5.6022 C   0  0  1  0  0  0  0  0  0  0  0  0
   15.8710   75.6546   -5.1463 H   0  0  0  0  0  0  0  0  0  0  0  0
   15.5890   74.3270   -6.4660 H   0  0  0  0  0  0  0  0  0  0  0  0
   18.6493   76.5512   -3.4479 H   0  0  0  0  0  0  0  0  0  0  0  0
   17.8252   74.1079   -9.2674 O   0  0  0  0  0  0  0  0  0  0  0  0
   18.6218   73.1603   -8.5804 C   0  0  0  0  0  0  0  0  0  0  0  0
   17.7577   73.8557  -10.2020 H   0  0  0  0  0  0  0  0  0  0  0  0
 25 28  1  0
 25 24  1  0
 25 26  1  6
 25 27  2  0
  1  4  1  0
  1 24  1  0
  1  2  1  1
  1  3  2  0
  6 11  1  0
  6 12  1  0
 29 36  1  0
 29 37  1  0
  9  7  1  1
  7 13  1  0
 10  8  1  1
  8 14  1  0
 37 28  1  1
  4  5  1  0
 33 30  1  6
 30 38  1  0
 34 31  1  1
 31 39  1  0
 35 32  1  1
 32 40  1  0
 41 42  1  0
 41 43  1  0
 15 19  2  0
 16 22  2  0
 12 17  1  6
 17 19  1  0
 17 20  1  0
 18 19  1  0
 18 22  1  0
 18 23  1  0
  9 10  1  0
  9 11  1  0
 10 12  1  0
 11  5  1  6
 33 34  1  0
 33 35  1  0
 34 36  1  0
 35 37  1  0
 36 42  1  6
 20 21  2  0
 21 22  1  0
M  CHG  2   2  -1  26  -1
M  END
>  <COMPND>  (192) 
    8629 

>  <AUTHOR>  (192) 
    GENERATED BY OPEN BABEL 3.1.1

>  <MASTER>  (192) 
        0    0    0    0    0    0    0    0   58    0   58    0

>  <minimizedAffinity>  (192) 
-7.20428

>  <CNNscore>  (192) 
0.4191637337

>  <CNNaffinity>  (192) 
3.9782481194

>  <CNN_VS>  (192) 
1.6675373316

>  <CNNaffinity_variance>  (192) 
0.7630247474

$$$$
193
     RDKit          3D

 43 45  0  0  0  0  0  0  0  0999 V2000
   21.5941   71.6394   -2.3022 P   0  0  2  0  0  0  0  0  0  0  0  0
   21.6341   70.2673   -1.4461 O   0  0  0  0  0  0  0  0  0  0  0  0
   22.9373   72.1815   -2.6938 O   0  0  0  0  0  0  0  0  0  0  0  0
   20.6706   72.6258   -1.4122 O   0  0  0  0  0  0  0  0  0  0  0  0
   21.2693   73.7714   -0.8315 C   0  0  0  0  0  0  0  0  0  0  0  0
   23.0361   73.5067    0.7753 O   0  0  0  0  0  0  0  0  0  0  0  0
   20.9329   73.9055    2.8749 O   0  0  0  0  0  0  0  0  0  0  0  0
   22.1350   76.3508    2.7657 O   0  0  0  0  0  0  0  0  0  0  0  0
   21.0539   74.5168    1.5915 C   0  0  1  0  0  0  0  0  0  0  0  0
   22.1626   75.5484    1.6029 C   0  0  2  0  0  0  0  0  0  0  0  0
   21.6000   73.4736    0.6246 C   0  0  1  0  0  0  0  0  0  0  0  0
   23.4046   74.6771    1.5231 C   0  0  2  0  0  0  0  0  0  0  0  0
   20.5855   74.5525    3.5095 H   0  0  0  0  0  0  0  0  0  0  0  0
   21.3263   76.8862    2.7702 H   0  0  0  0  0  0  0  0  0  0  0  0
   25.9408   75.1387    2.6775 O   0  0  0  0  0  0  0  0  0  0  0  0
   27.5017   77.2081   -1.1334 O   0  0  0  0  0  0  0  0  0  0  0  0
   24.4925   75.3340    0.8550 N   0  0  0  0  0  0  0  0  0  0  0  0
   26.7160   76.1686    0.7790 N   0  0  0  0  0  0  0  0  0  0  0  0
   25.7251   75.5168    1.5241 C   0  0  0  0  0  0  0  0  0  0  0  0
   24.3314   75.7887   -0.4493 C   0  0  0  0  0  0  0  0  0  0  0  0
   25.2859   76.4095   -1.1456 C   0  0  0  0  0  0  0  0  0  0  0  0
   26.6037   76.6401   -0.5194 C   0  0  0  0  0  0  0  0  0  0  0  0
   27.5830   76.3074    1.2248 H   0  0  0  0  0  0  0  0  0  0  0  0
   20.6316   71.2642   -3.5455 O   0  0  0  0  0  0  0  0  0  0  0  0
   19.1822   70.5498   -3.5880 P   0  0  2  0  0  0  0  0  0  0  0  0
   18.1822   71.7077   -3.0620 O   0  0  0  0  0  0  0  0  0  0  0  0
   19.1058   69.2664   -2.8128 O   0  0  0  0  0  0  0  0  0  0  0  0
   18.8451   70.4030   -5.1596 O   0  0  0  0  0  0  0  0  0  0  0  0
   19.0069   71.9122   -6.9796 O   0  0  0  0  0  0  0  0  0  0  0  0
   15.4246   70.0985   -7.9431 O   0  0  0  0  0  0  0  0  0  0  0  0
   17.7741   69.5050   -9.4844 O   0  0  0  0  0  0  0  0  0  0  0  0
   16.0523   70.6768   -5.1770 O   0  0  0  0  0  0  0  0  0  0  0  0
   16.7551   70.1603   -7.4221 C   0  0  1  0  0  0  0  0  0  0  0  0
   17.6943   70.5813   -8.5541 C   0  0  1  0  0  0  0  0  0  0  0  0
   16.7981   71.1760   -6.2820 C   0  0  2  0  0  0  0  0  0  0  0  0
   19.0894   70.9276   -8.0166 C   0  0  1  0  0  0  0  0  0  0  0  0
   18.2341   71.4862   -5.8557 C   0  0  1  0  0  0  0  0  0  0  0  0
   15.3904   69.4549   -8.6671 H   0  0  0  0  0  0  0  0  0  0  0  0
   16.8866   69.2960   -9.8158 H   0  0  0  0  0  0  0  0  0  0  0  0
   15.1451   70.4846   -5.4597 H   0  0  0  0  0  0  0  0  0  0  0  0
   20.3933   72.8028   -8.7183 O   0  0  0  0  0  0  0  0  0  0  0  0
   19.9955   71.5001   -9.1044 C   0  0  0  0  0  0  0  0  0  0  0  0
   20.9707   73.1796   -9.4011 H   0  0  0  0  0  0  0  0  0  0  0  0
 25 28  1  0
 25 24  1  0
 25 26  1  1
 25 27  2  0
  1  4  1  0
  1 24  1  0
  1  2  1  1
  1  3  2  0
  6 11  1  0
  6 12  1  0
 29 36  1  0
 29 37  1  0
  9  7  1  1
  7 13  1  0
 10  8  1  1
  8 14  1  0
 37 28  1  6
  4  5  1  0
 33 30  1  6
 30 38  1  0
 34 31  1  6
 31 39  1  0
 35 32  1  1
 32 40  1  0
 41 42  1  0
 41 43  1  0
 15 19  2  0
 16 22  2  0
 12 17  1  6
 17 19  1  0
 17 20  1  0
 18 19  1  0
 18 22  1  0
 18 23  1  0
  9 10  1  0
  9 11  1  0
 10 12  1  0
 11  5  1  6
 33 34  1  0
 33 35  1  0
 34 36  1  0
 35 37  1  0
 36 42  1  6
 20 21  2  0
 21 22  1  0
M  CHG  2   2  -1  26  -1
M  END
>  <COMPND>  (193) 
    8629 

>  <AUTHOR>  (193) 
    GENERATED BY OPEN BABEL 3.1.1

>  <MASTER>  (193) 
        0    0    0    0    0    0    0    0   58    0   58    0

>  <minimizedAffinity>  (193) 
-7.13066

>  <CNNscore>  (193) 
0.4012775719

>  <CNNaffinity>  (193) 
3.9524779320

>  <CNN_VS>  (193) 
1.5860407352

>  <CNNaffinity_variance>  (193) 
0.1419883966

$$$$
194
     RDKit          3D

 43 45  0  0  0  0  0  0  0  0999 V2000
   20.9163   73.5955   -6.4332 P   0  0  2  0  0  0  0  0  0  0  0  0
   20.0546   74.9436   -6.6728 O   0  0  0  0  0  0  0  0  0  0  0  0
   22.2725   73.5877   -7.0750 O   0  0  0  0  0  0  0  0  0  0  0  0
   19.9159   72.4087   -6.8901 O   0  0  0  0  0  0  0  0  0  0  0  0
   19.1568   72.5826   -8.0738 C   0  0  0  0  0  0  0  0  0  0  0  0
   18.5939   70.3183   -7.4998 O   0  0  0  0  0  0  0  0  0  0  0  0
   17.4299   70.1069  -10.2550 O   0  0  0  0  0  0  0  0  0  0  0  0
   15.2186   70.4757   -8.7022 O   0  0  0  0  0  0  0  0  0  0  0  0
   17.4375   71.2193   -9.3617 C   0  0  1  0  0  0  0  0  0  0  0  0
   16.4468   70.9979   -8.2378 C   0  0  2  0  0  0  0  0  0  0  0  0
   18.7676   71.2151   -8.6186 C   0  0  1  0  0  0  0  0  0  0  0  0
   17.1960   70.0238   -7.3446 C   0  0  2  0  0  0  0  0  0  0  0  0
   16.5901   70.0888  -10.7413 H   0  0  0  0  0  0  0  0  0  0  0  0
   14.7803   71.1323   -9.2657 H   0  0  0  0  0  0  0  0  0  0  0  0
   16.3236   67.9023   -5.6966 O   0  0  0  0  0  0  0  0  0  0  0  0
   15.8577   70.6831   -2.0509 O   0  0  0  0  0  0  0  0  0  0  0  0
   16.8405   70.1650   -5.9608 N   0  0  0  0  0  0  0  0  0  0  0  0
   16.0925   69.2886   -3.8826 N   0  0  0  0  0  0  0  0  0  0  0  0
   16.4137   69.0366   -5.2225 C   0  0  0  0  0  0  0  0  0  0  0  0
   16.9170   71.4117   -5.3494 C   0  0  0  0  0  0  0  0  0  0  0  0
   16.6059   71.6355   -4.0710 C   0  0  0  0  0  0  0  0  0  0  0  0
   16.1511   70.5097   -3.2298 C   0  0  0  0  0  0  0  0  0  0  0  0
   15.7923   68.5174   -3.3488 H   0  0  0  0  0  0  0  0  0  0  0  0
   20.9334   73.4565   -4.8228 O   0  0  0  0  0  0  0  0  0  0  0  0
   22.1087   73.0061   -3.8085 P   0  0  2  0  0  0  0  0  0  0  0  0
   23.4405   73.6283   -4.4844 O   0  0  0  0  0  0  0  0  0  0  0  0
   22.1737   71.5270   -3.5598 O   0  0  0  0  0  0  0  0  0  0  0  0
   21.8693   73.8972   -2.4843 O   0  0  0  0  0  0  0  0  0  0  0  0
   23.2779   75.2947   -1.1884 O   0  0  0  0  0  0  0  0  0  0  0  0
   21.2283   73.4125    1.8624 O   0  0  0  0  0  0  0  0  0  0  0  0
   20.6700   76.1660    1.2670 O   0  0  0  0  0  0  0  0  0  0  0  0
   21.9963   71.9206   -0.4963 O   0  0  0  0  0  0  0  0  0  0  0  0
   21.3889   73.9951    0.5662 C   0  0  1  0  0  0  0  0  0  0  0  0
   21.7924   75.4599    0.7454 C   0  0  1  0  0  0  0  0  0  0  0  0
   22.4693   73.2290   -0.1949 C   0  0  2  0  0  0  0  0  0  0  0  0
   22.2409   76.0778   -0.5858 C   0  0  1  0  0  0  0  0  0  0  0  0
   22.8775   73.9540   -1.4786 C   0  0  1  0  0  0  0  0  0  0  0  0
   20.5433   73.8940    2.3508 H   0  0  0  0  0  0  0  0  0  0  0  0
   20.3965   75.7656    2.1072 H   0  0  0  0  0  0  0  0  0  0  0  0
   21.7414   71.4720    0.3244 H   0  0  0  0  0  0  0  0  0  0  0  0
   21.7100   78.3939   -0.3348 O   0  0  0  0  0  0  0  0  0  0  0  0
   22.7963   77.4886   -0.4031 C   0  0  0  0  0  0  0  0  0  0  0  0
   22.0484   79.2959   -0.2182 H   0  0  0  0  0  0  0  0  0  0  0  0
 25 28  1  0
 25 24  1  0
 25 26  1  6
 25 27  2  0
  1  4  1  0
  1 24  1  0
  1  2  1  1
  1  3  2  0
  6 11  1  0
  6 12  1  0
 29 36  1  0
 29 37  1  0
  9  7  1  6
  7 13  1  0
 10  8  1  6
  8 14  1  0
 37 28  1  6
  4  5  1  0
 33 30  1  1
 30 38  1  0
 34 31  1  6
 31 39  1  0
 35 32  1  6
 32 40  1  0
 41 42  1  0
 41 43  1  0
 15 19  2  0
 16 22  2  0
 12 17  1  1
 17 19  1  0
 17 20  1  0
 18 19  1  0
 18 22  1  0
 18 23  1  0
  9 10  1  0
  9 11  1  0
 10 12  1  0
 11  5  1  1
 33 34  1  0
 33 35  1  0
 34 36  1  0
 35 37  1  0
 36 42  1  1
 20 21  2  0
 21 22  1  0
M  CHG  2   2  -1  26  -1
M  END
>  <COMPND>  (194) 
    8629 

>  <AUTHOR>  (194) 
    GENERATED BY OPEN BABEL 3.1.1

>  <MASTER>  (194) 
        0    0    0    0    0    0    0    0   58    0   58    0

>  <minimizedAffinity>  (194) 
-7.42877

>  <CNNscore>  (194) 
0.3766629994

>  <CNNaffinity>  (194) 
4.1295628548

>  <CNN_VS>  (194) 
1.5554535389

>  <CNNaffinity_variance>  (194) 
0.2130390406

$$$$
195
     RDKit          3D

 43 45  0  0  0  0  0  0  0  0999 V2000
   15.8415   70.4289   -3.7705 P   0  0  2  0  0  0  0  0  0  0  0  0
   15.9018   68.9250   -4.3639 O   0  0  0  0  0  0  0  0  0  0  0  0
   15.3609   70.5321   -2.3528 O   0  0  0  0  0  0  0  0  0  0  0  0
   14.9757   71.2447   -4.8671 O   0  0  0  0  0  0  0  0  0  0  0  0
   15.6049   72.2956   -5.5796 C   0  0  0  0  0  0  0  0  0  0  0  0
   16.2797   72.8877   -7.8084 O   0  0  0  0  0  0  0  0  0  0  0  0
   14.5755   70.5998   -8.7312 O   0  0  0  0  0  0  0  0  0  0  0  0
   17.0892   69.5476   -8.8335 O   0  0  0  0  0  0  0  0  0  0  0  0
   15.3779   70.7108   -7.5569 C   0  0  1  0  0  0  0  0  0  0  0  0
   16.8456   70.5886   -7.9095 C   0  0  2  0  0  0  0  0  0  0  0  0
   15.2884   72.1489   -7.0616 C   0  0  1  0  0  0  0  0  0  0  0  0
   17.1472   71.9624   -8.4837 C   0  0  2  0  0  0  0  0  0  0  0  0
   14.6165   69.6897   -9.0659 H   0  0  0  0  0  0  0  0  0  0  0  0
   16.8826   68.6942   -8.4212 H   0  0  0  0  0  0  0  0  0  0  0  0
   19.3200   71.1452  -10.0928 O   0  0  0  0  0  0  0  0  0  0  0  0
   22.3333   73.5449   -7.5624 O   0  0  0  0  0  0  0  0  0  0  0  0
   18.5102   72.3589   -8.2684 N   0  0  0  0  0  0  0  0  0  0  0  0
   20.8186   72.3409   -8.8317 N   0  0  0  0  0  0  0  0  0  0  0  0
   19.5267   71.8917   -9.1338 C   0  0  0  0  0  0  0  0  0  0  0  0
   18.8275   73.2021   -7.2090 C   0  0  0  0  0  0  0  0  0  0  0  0
   20.0647   73.6201   -6.9337 C   0  0  0  0  0  0  0  0  0  0  0  0
   21.1846   73.1780   -7.7895 C   0  0  0  0  0  0  0  0  0  0  0  0
   21.5430   72.0280   -9.4208 H   0  0  0  0  0  0  0  0  0  0  0  0
   17.3432   70.9757   -4.0132 O   0  0  0  0  0  0  0  0  0  0  0  0
   18.7757   70.3838   -3.5543 P   0  0  2  0  0  0  0  0  0  0  0  0
   19.4973   70.0287   -4.9582 O   0  0  0  0  0  0  0  0  0  0  0  0
   18.6869   69.2323   -2.5951 O   0  0  0  0  0  0  0  0  0  0  0  0
   19.5848   71.6620   -2.9919 O   0  0  0  0  0  0  0  0  0  0  0  0
   21.2736   73.0702   -3.8759 O   0  0  0  0  0  0  0  0  0  0  0  0
   22.7745   72.5527   -0.0641 O   0  0  0  0  0  0  0  0  0  0  0  0
   21.6331   75.0811   -0.8074 O   0  0  0  0  0  0  0  0  0  0  0  0
   21.5026   70.3388   -1.4280 O   0  0  0  0  0  0  0  0  0  0  0  0
   21.7518   72.7048   -1.0522 C   0  0  1  0  0  0  0  0  0  0  0  0
   21.9502   74.0550   -1.7438 C   0  0  1  0  0  0  0  0  0  0  0  0
   21.8589   71.5630   -2.0612 C   0  0  2  0  0  0  0  0  0  0  0  0
   21.0618   74.1752   -2.9894 C   0  0  1  0  0  0  0  0  0  0  0  0
   20.9724   71.8049   -3.2842 C   0  0  1  0  0  0  0  0  0  0  0  0
   22.7118   73.2744    0.5800 H   0  0  0  0  0  0  0  0  0  0  0  0
   22.2007   74.9936   -0.0255 H   0  0  0  0  0  0  0  0  0  0  0  0
   22.0711   70.1970   -0.6556 H   0  0  0  0  0  0  0  0  0  0  0  0
   20.6525   76.5208   -3.1886 O   0  0  0  0  0  0  0  0  0  0  0  0
   21.3577   75.4463   -3.7824 C   0  0  0  0  0  0  0  0  0  0  0  0
   20.8315   77.3366   -3.6826 H   0  0  0  0  0  0  0  0  0  0  0  0
 25 28  1  0
 25 24  1  0
 25 26  1  6
 25 27  2  0
  1  4  1  0
  1 24  1  0
  1  2  1  6
  1  3  2  0
  6 11  1  0
  6 12  1  0
 29 36  1  0
 29 37  1  0
  9  7  1  6
  7 13  1  0
 10  8  1  6
  8 14  1  0
 37 28  1  1
  4  5  1  0
 33 30  1  1
 30 38  1  0
 34 31  1  1
 31 39  1  0
 35 32  1  1
 32 40  1  0
 41 42  1  0
 41 43  1  0
 15 19  2  0
 16 22  2  0
 12 17  1  1
 17 19  1  0
 17 20  1  0
 18 19  1  0
 18 22  1  0
 18 23  1  0
  9 10  1  0
  9 11  1  0
 10 12  1  0
 11  5  1  1
 33 34  1  0
 33 35  1  0
 34 36  1  0
 35 37  1  0
 36 42  1  6
 20 21  2  0
 21 22  1  0
M  CHG  2   2  -1  26  -1
M  END
>  <COMPND>  (195) 
    8629 

>  <AUTHOR>  (195) 
    GENERATED BY OPEN BABEL 3.1.1

>  <MASTER>  (195) 
        0    0    0    0    0    0    0    0   58    0   58    0

>  <minimizedAffinity>  (195) 
-7.91541

>  <CNNscore>  (195) 
0.3702758551

>  <CNNaffinity>  (195) 
4.1677002907

>  <CNN_VS>  (195) 
1.5431988239

>  <CNNaffinity_variance>  (195) 
0.3904905617

$$$$
196
     RDKit          3D

 43 45  0  0  0  0  0  0  0  0999 V2000
   16.4282   73.7933   -2.9054 P   0  0  2  0  0  0  0  0  0  0  0  0
   15.2495   73.4925   -3.9721 O   0  0  0  0  0  0  0  0  0  0  0  0
   16.1572   74.9311   -1.9656 O   0  0  0  0  0  0  0  0  0  0  0  0
   17.7535   73.9393   -3.8219 O   0  0  0  0  0  0  0  0  0  0  0  0
   17.5932   74.1365   -5.2159 C   0  0  0  0  0  0  0  0  0  0  0  0
   19.8629   74.7896   -4.7734 O   0  0  0  0  0  0  0  0  0  0  0  0
   20.0949   75.2938   -7.7200 O   0  0  0  0  0  0  0  0  0  0  0  0
   21.3102   72.8693   -7.4343 O   0  0  0  0  0  0  0  0  0  0  0  0
   19.3682   74.2762   -7.0333 C   0  0  1  0  0  0  0  0  0  0  0  0
   20.3164   73.2252   -6.4949 C   0  0  2  0  0  0  0  0  0  0  0  0
   18.8063   74.8830   -5.7538 C   0  0  1  0  0  0  0  0  0  0  0  0
   20.8906   73.9167   -5.2701 C   0  0  2  0  0  0  0  0  0  0  0  0
   20.4631   74.9299   -8.5410 H   0  0  0  0  0  0  0  0  0  0  0  0
   20.8951   72.4329   -8.1946 H   0  0  0  0  0  0  0  0  0  0  0  0
   23.5318   73.4888   -4.3649 O   0  0  0  0  0  0  0  0  0  0  0  0
   22.1648   70.3290   -1.3009 O   0  0  0  0  0  0  0  0  0  0  0  0
   21.2536   72.9884   -4.2367 N   0  0  0  0  0  0  0  0  0  0  0  0
   22.8489   71.9159   -2.8399 N   0  0  0  0  0  0  0  0  0  0  0  0
   22.6088   72.8485   -3.8571 C   0  0  0  0  0  0  0  0  0  0  0  0
   20.2709   72.2288   -3.6111 C   0  0  0  0  0  0  0  0  0  0  0  0
   20.5165   71.3428   -2.6437 C   0  0  0  0  0  0  0  0  0  0  0  0
   21.9065   71.1363   -2.1883 C   0  0  0  0  0  0  0  0  0  0  0  0
   23.7859   71.8013   -2.5593 H   0  0  0  0  0  0  0  0  0  0  0  0
   16.6405   72.3618   -2.1851 O   0  0  0  0  0  0  0  0  0  0  0  0
   16.5568   70.8568   -2.7691 P   0  0  2  0  0  0  0  0  0  0  0  0
   14.9783   70.5126   -2.6828 O   0  0  0  0  0  0  0  0  0  0  0  0
   17.4447   69.8729   -2.0637 O   0  0  0  0  0  0  0  0  0  0  0  0
   16.8541   71.0141   -4.3476 O   0  0  0  0  0  0  0  0  0  0  0  0
   15.4829   70.1338   -6.0685 O   0  0  0  0  0  0  0  0  0  0  0  0
   19.1132   70.1013   -8.0359 O   0  0  0  0  0  0  0  0  0  0  0  0
   17.1207   72.0356   -8.7684 O   0  0  0  0  0  0  0  0  0  0  0  0
   18.9874   69.4164   -5.2262 O   0  0  0  0  0  0  0  0  0  0  0  0
   18.1242   70.6059   -7.1344 C   0  0  1  0  0  0  0  0  0  0  0  0
   16.8565   70.9105   -7.9349 C   0  0  1  0  0  0  0  0  0  0  0  0
   17.8435   69.5548   -6.0621 C   0  0  2  0  0  0  0  0  0  0  0  0
   15.6707   71.2011   -7.0051 C   0  0  1  0  0  0  0  0  0  0  0  0
   16.6154   69.9163   -5.2247 C   0  0  1  0  0  0  0  0  0  0  0  0
   19.2964   70.7641   -8.7190 H   0  0  0  0  0  0  0  0  0  0  0  0
   17.8718   71.8392   -9.3502 H   0  0  0  0  0  0  0  0  0  0  0  0
   19.7579   69.1873   -5.7681 H   0  0  0  0  0  0  0  0  0  0  0  0
   14.4558   70.5991   -8.9725 O   0  0  0  0  0  0  0  0  0  0  0  0
   14.3619   71.3523   -7.7774 C   0  0  0  0  0  0  0  0  0  0  0  0
   13.6297   70.6857   -9.4743 H   0  0  0  0  0  0  0  0  0  0  0  0
 25 28  1  0
 25 24  1  0
 25 26  1  6
 25 27  2  0
  1  4  1  0
  1 24  1  0
  1  2  1  6
  1  3  2  0
  6 11  1  0
  6 12  1  0
 29 36  1  0
 29 37  1  0
  9  7  1  1
  7 13  1  0
 10  8  1  6
  8 14  1  0
 37 28  1  6
  4  5  1  0
 33 30  1  6
 30 38  1  0
 34 31  1  6
 31 39  1  0
 35 32  1  1
 32 40  1  0
 41 42  1  0
 41 43  1  0
 15 19  2  0
 16 22  2  0
 12 17  1  1
 17 19  1  0
 17 20  1  0
 18 19  1  0
 18 22  1  0
 18 23  1  0
  9 10  1  0
  9 11  1  0
 10 12  1  0
 11  5  1  1
 33 34  1  0
 33 35  1  0
 34 36  1  0
 35 37  1  0
 36 42  1  6
 20 21  2  0
 21 22  1  0
M  CHG  2   2  -1  26  -1
M  END
>  <COMPND>  (196) 
    8629 

>  <AUTHOR>  (196) 
    GENERATED BY OPEN BABEL 3.1.1

>  <MASTER>  (196) 
        0    0    0    0    0    0    0    0   58    0   58    0

>  <minimizedAffinity>  (196) 
-7.12242

>  <CNNscore>  (196) 
0.3449100256

>  <CNNaffinity>  (196) 
3.8793861866

>  <CNN_VS>  (196) 
1.3380391598

>  <CNNaffinity_variance>  (196) 
0.6608139277

$$$$
197
     RDKit          3D

 43 45  0  0  0  0  0  0  0  0999 V2000
   17.4247   73.9233   -2.5672 P   0  0  2  0  0  0  0  0  0  0  0  0
   16.3611   73.6860   -1.3715 O   0  0  0  0  0  0  0  0  0  0  0  0
   17.6674   75.3605   -2.9237 O   0  0  0  0  0  0  0  0  0  0  0  0
   16.8770   72.9849   -3.7661 O   0  0  0  0  0  0  0  0  0  0  0  0
   16.8961   71.5794   -3.5871 C   0  0  0  0  0  0  0  0  0  0  0  0
   15.2994   71.1684   -5.3351 O   0  0  0  0  0  0  0  0  0  0  0  0
   14.0073   69.2336   -3.4436 O   0  0  0  0  0  0  0  0  0  0  0  0
   15.4247   67.5920   -5.0968 O   0  0  0  0  0  0  0  0  0  0  0  0
   15.3910   69.5284   -3.6269 C   0  0  1  0  0  0  0  0  0  0  0  0
   15.8936   68.9127   -4.9161 C   0  0  2  0  0  0  0  0  0  0  0  0
   15.5190   71.0190   -3.9153 C   0  0  1  0  0  0  0  0  0  0  0  0
   15.3483   69.8745   -5.9581 C   0  0  2  0  0  0  0  0  0  0  0  0
   13.9004   68.2870   -3.2578 H   0  0  0  0  0  0  0  0  0  0  0  0
   15.7994   67.0189   -4.4099 H   0  0  0  0  0  0  0  0  0  0  0  0
   14.4404   70.6277   -8.5245 O   0  0  0  0  0  0  0  0  0  0  0  0
   18.6391   70.1258  -10.3578 O   0  0  0  0  0  0  0  0  0  0  0  0
   16.1828   69.9495   -7.1240 N   0  0  0  0  0  0  0  0  0  0  0  0
   16.5318   70.3774   -9.4352 N   0  0  0  0  0  0  0  0  0  0  0  0
   15.6280   70.3377   -8.3658 C   0  0  0  0  0  0  0  0  0  0  0  0
   17.5353   69.6405   -7.0292 C   0  0  0  0  0  0  0  0  0  0  0  0
   18.3836   69.6820   -8.0588 C   0  0  0  0  0  0  0  0  0  0  0  0
   17.8843   70.0781   -9.3914 C   0  0  0  0  0  0  0  0  0  0  0  0
   16.1677   70.6448  -10.3102 H   0  0  0  0  0  0  0  0  0  0  0  0
   18.7341   73.1276   -2.0522 O   0  0  0  0  0  0  0  0  0  0  0  0
   20.2611   73.1406   -2.5825 P   0  0  2  0  0  0  0  0  0  0  0  0
   20.6065   71.5697   -2.7575 O   0  0  0  0  0  0  0  0  0  0  0  0
   21.2139   73.8892   -1.6962 O   0  0  0  0  0  0  0  0  0  0  0  0
   20.1649   73.7073   -4.0907 O   0  0  0  0  0  0  0  0  0  0  0  0
   19.2892   72.5998   -5.9942 O   0  0  0  0  0  0  0  0  0  0  0  0
   22.2217   74.8522   -7.8322 O   0  0  0  0  0  0  0  0  0  0  0  0
   19.4610   75.5638   -8.1791 O   0  0  0  0  0  0  0  0  0  0  0  0
   22.7246   73.6654   -5.2402 O   0  0  0  0  0  0  0  0  0  0  0  0
   21.2018   74.5785   -6.8677 C   0  0  1  0  0  0  0  0  0  0  0  0
   19.8902   74.3279   -7.6147 C   0  0  1  0  0  0  0  0  0  0  0  0
   21.6008   73.3484   -6.0546 C   0  0  2  0  0  0  0  0  0  0  0  0
   18.8150   73.7682   -6.6736 C   0  0  1  0  0  0  0  0  0  0  0  0
   20.4446   72.8437   -5.1895 C   0  0  1  0  0  0  0  0  0  0  0  0
   21.9747   75.6325   -8.3515 H   0  0  0  0  0  0  0  0  0  0  0  0
   20.1491   75.9067   -8.7709 H   0  0  0  0  0  0  0  0  0  0  0  0
   23.4497   73.9834   -5.7996 H   0  0  0  0  0  0  0  0  0  0  0  0
   16.4413   73.5197   -6.5608 O   0  0  0  0  0  0  0  0  0  0  0  0
   17.5499   73.3634   -7.4272 C   0  0  0  0  0  0  0  0  0  0  0  0
   15.6289   73.2660   -7.0271 H   0  0  0  0  0  0  0  0  0  0  0  0
 25 28  1  0
 25 24  1  0
 25 26  1  6
 25 27  2  0
  1  4  1  0
  1 24  1  0
  1  2  1  1
  1  3  2  0
  6 11  1  0
  6 12  1  0
 29 36  1  0
 29 37  1  0
  9  7  1  6
  7 13  1  0
 10  8  1  6
  8 14  1  0
 37 28  1  1
  4  5  1  0
 33 30  1  6
 30 38  1  0
 34 31  1  1
 31 39  1  0
 35 32  1  1
 32 40  1  0
 41 42  1  0
 41 43  1  0
 15 19  2  0
 16 22  2  0
 12 17  1  6
 17 19  1  0
 17 20  1  0
 18 19  1  0
 18 22  1  0
 18 23  1  0
  9 10  1  0
  9 11  1  0
 10 12  1  0
 11  5  1  6
 33 34  1  0
 33 35  1  0
 34 36  1  0
 35 37  1  0
 36 42  1  6
 20 21  2  0
 21 22  1  0
M  CHG  2   2  -1  26  -1
M  END
>  <COMPND>  (197) 
    8629 

>  <AUTHOR>  (197) 
    GENERATED BY OPEN BABEL 3.1.1

>  <MASTER>  (197) 
        0    0    0    0    0    0    0    0   58    0   58    0

>  <minimizedAffinity>  (197) 
-6.59235

>  <CNNscore>  (197) 
0.3394863904

>  <CNNaffinity>  (197) 
3.8704655170

>  <CNN_VS>  (197) 
1.3139703274

>  <CNNaffinity_variance>  (197) 
0.7904365659

$$$$
198
     RDKit          3D

 43 45  0  0  0  0  0  0  0  0999 V2000
   19.7754   76.3372   -6.1798 P   0  0  2  0  0  0  0  0  0  0  0  0
   20.3636   76.7733   -4.7372 O   0  0  0  0  0  0  0  0  0  0  0  0
   20.2971   77.1291   -7.3426 O   0  0  0  0  0  0  0  0  0  0  0  0
   18.1712   76.3691   -5.9711 O   0  0  0  0  0  0  0  0  0  0  0  0
   17.3487   75.7765   -6.9610 C   0  0  0  0  0  0  0  0  0  0  0  0
   15.7203   74.0246   -7.1917 O   0  0  0  0  0  0  0  0  0  0  0  0
   15.4979   74.0934   -4.2022 O   0  0  0  0  0  0  0  0  0  0  0  0
   17.0936   71.9237   -4.6298 O   0  0  0  0  0  0  0  0  0  0  0  0
   16.6476   74.2807   -5.0259 C   0  0  1  0  0  0  0  0  0  0  0  0
   17.1079   72.9551   -5.5956 C   0  0  2  0  0  0  0  0  0  0  0  0
   16.2105   75.0305   -6.2782 C   0  0  1  0  0  0  0  0  0  0  0  0
   16.1025   72.7254   -6.7112 C   0  0  2  0  0  0  0  0  0  0  0  0
   15.7522   73.6168   -3.3959 H   0  0  0  0  0  0  0  0  0  0  0  0
   17.7498   72.1156   -3.9418 H   0  0  0  0  0  0  0  0  0  0  0  0
   14.9422   70.3817   -7.7782 O   0  0  0  0  0  0  0  0  0  0  0  0
   18.3123   69.9085  -10.8863 O   0  0  0  0  0  0  0  0  0  0  0  0
   16.6553   71.9698   -7.7997 N   0  0  0  0  0  0  0  0  0  0  0  0
   16.6211   70.1481   -9.3250 N   0  0  0  0  0  0  0  0  0  0  0  0
   15.9945   70.8068   -8.2594 C   0  0  0  0  0  0  0  0  0  0  0  0
   17.8395   72.3838   -8.3997 C   0  0  0  0  0  0  0  0  0  0  0  0
   18.4247   71.7438   -9.4142 C   0  0  0  0  0  0  0  0  0  0  0  0
   17.7988   70.5195   -9.9541 C   0  0  0  0  0  0  0  0  0  0  0  0
   16.1790   69.3351   -9.6618 H   0  0  0  0  0  0  0  0  0  0  0  0
   20.1022   74.7553   -6.2425 O   0  0  0  0  0  0  0  0  0  0  0  0
   21.5103   73.9639   -6.3050 P   0  0  2  0  0  0  0  0  0  0  0  0
   22.6067   75.1467   -6.1772 O   0  0  0  0  0  0  0  0  0  0  0  0
   21.6747   73.0956   -7.5186 O   0  0  0  0  0  0  0  0  0  0  0  0
   21.5975   73.1737   -4.9004 O   0  0  0  0  0  0  0  0  0  0  0  0
   19.8062   72.0118   -3.8719 O   0  0  0  0  0  0  0  0  0  0  0  0
   21.9278   73.0771   -0.4934 O   0  0  0  0  0  0  0  0  0  0  0  0
   21.9262   70.3397   -1.3623 O   0  0  0  0  0  0  0  0  0  0  0  0
   21.7217   74.9255   -2.7115 O   0  0  0  0  0  0  0  0  0  0  0  0
   21.7637   72.6744   -1.8558 C   0  0  1  0  0  0  0  0  0  0  0  0
   21.0367   71.3284   -1.8739 C   0  0  1  0  0  0  0  0  0  0  0  0
   20.9501   73.7349   -2.5952 C   0  0  2  0  0  0  0  0  0  0  0  0
   20.5884   70.9599   -3.2946 C   0  0  1  0  0  0  0  0  0  0  0  0
   20.5132   73.2490   -3.9784 C   0  0  1  0  0  0  0  0  0  0  0  0
   22.4440   72.4082   -0.0184 H   0  0  0  0  0  0  0  0  0  0  0  0
   22.2021   70.5846   -0.4650 H   0  0  0  0  0  0  0  0  0  0  0  0
   21.9918   75.2231   -1.8293 H   0  0  0  0  0  0  0  0  0  0  0  0
   19.1426   69.5739   -4.5974 O   0  0  0  0  0  0  0  0  0  0  0  0
   19.7252   69.7003   -3.3133 C   0  0  0  0  0  0  0  0  0  0  0  0
   18.5905   68.7762   -4.6242 H   0  0  0  0  0  0  0  0  0  0  0  0
 25 28  1  0
 25 24  1  0
 25 26  1  1
 25 27  2  0
  1  4  1  0
  1 24  1  0
  1  2  1  1
  1  3  2  0
  6 11  1  0
  6 12  1  0
 29 36  1  0
 29 37  1  0
  9  7  1  1
  7 13  1  0
 10  8  1  1
  8 14  1  0
 37 28  1  6
  4  5  1  0
 33 30  1  1
 30 38  1  0
 34 31  1  6
 31 39  1  0
 35 32  1  6
 32 40  1  0
 41 42  1  0
 41 43  1  0
 15 19  2  0
 16 22  2  0
 12 17  1  6
 17 19  1  0
 17 20  1  0
 18 19  1  0
 18 22  1  0
 18 23  1  0
  9 10  1  0
  9 11  1  0
 10 12  1  0
 11  5  1  6
 33 34  1  0
 33 35  1  0
 34 36  1  0
 35 37  1  0
 36 42  1  1
 20 21  2  0
 21 22  1  0
M  CHG  2   2  -1  26  -1
M  END
>  <COMPND>  (198) 
    8629 

>  <AUTHOR>  (198) 
    GENERATED BY OPEN BABEL 3.1.1

>  <MASTER>  (198) 
        0    0    0    0    0    0    0    0   58    0   58    0

>  <minimizedAffinity>  (198) 
-6.33099

>  <CNNscore>  (198) 
0.3385809660

>  <CNNaffinity>  (198) 
3.9755485058

>  <CNN_VS>  (198) 
1.3460450172

>  <CNNaffinity_variance>  (198) 
0.2900005281

$$$$
199
     RDKit          3D

 43 45  0  0  0  0  0  0  0  0999 V2000
   19.9165   71.2027   -2.6158 P   0  0  2  0  0  0  0  0  0  0  0  0
   20.6626   71.7878   -1.3050 O   0  0  0  0  0  0  0  0  0  0  0  0
   19.7189   69.7153   -2.6216 O   0  0  0  0  0  0  0  0  0  0  0  0
   20.7732   71.8025   -3.8505 O   0  0  0  0  0  0  0  0  0  0  0  0
   21.9808   72.4870   -3.5661 C   0  0  0  0  0  0  0  0  0  0  0  0
   21.7245   74.6475   -2.5460 O   0  0  0  0  0  0  0  0  0  0  0  0
   22.4388   75.7897   -5.2248 O   0  0  0  0  0  0  0  0  0  0  0  0
   24.7771   76.0153   -3.8398 O   0  0  0  0  0  0  0  0  0  0  0  0
   22.9338   74.6152   -4.5837 C   0  0  1  0  0  0  0  0  0  0  0  0
   23.8829   74.9878   -3.4639 C   0  0  2  0  0  0  0  0  0  0  0  0
   21.7799   73.9743   -3.8227 C   0  0  1  0  0  0  0  0  0  0  0  0
   22.9232   75.4198   -2.3682 C   0  0  2  0  0  0  0  0  0  0  0  0
   23.1579   76.2163   -5.7176 H   0  0  0  0  0  0  0  0  0  0  0  0
   25.3663   75.6916   -4.5389 H   0  0  0  0  0  0  0  0  0  0  0  0
   24.7274   77.1264   -1.0228 O   0  0  0  0  0  0  0  0  0  0  0  0
   24.8629   74.3731    2.6708 O   0  0  0  0  0  0  0  0  0  0  0  0
   23.4459   75.1735   -1.0539 N   0  0  0  0  0  0  0  0  0  0  0  0
   24.7933   75.7542    0.8153 N   0  0  0  0  0  0  0  0  0  0  0  0
   24.3470   76.0931   -0.4684 C   0  0  0  0  0  0  0  0  0  0  0  0
   23.0644   74.0307   -0.3593 C   0  0  0  0  0  0  0  0  0  0  0  0
   23.5000   73.7214    0.8638 C   0  0  0  0  0  0  0  0  0  0  0  0
   24.4441   74.6297    1.5462 C   0  0  0  0  0  0  0  0  0  0  0  0
   25.4221   76.3800    1.2429 H   0  0  0  0  0  0  0  0  0  0  0  0
   18.5492   72.0632   -2.6703 O   0  0  0  0  0  0  0  0  0  0  0  0
   17.0430   71.6384   -3.0750 P   0  0  2  0  0  0  0  0  0  0  0  0
   16.2101   73.0146   -2.9017 O   0  0  0  0  0  0  0  0  0  0  0  0
   16.4978   70.4814   -2.2890 O   0  0  0  0  0  0  0  0  0  0  0  0
   17.1016   71.3955   -4.6695 O   0  0  0  0  0  0  0  0  0  0  0  0
   15.5880   70.1041   -5.9572 O   0  0  0  0  0  0  0  0  0  0  0  0
   19.0133   69.5261   -8.1896 O   0  0  0  0  0  0  0  0  0  0  0  0
   16.9255   71.2151   -9.2076 O   0  0  0  0  0  0  0  0  0  0  0  0
   19.1693   69.6061   -5.3002 O   0  0  0  0  0  0  0  0  0  0  0  0
   18.1063   70.2581   -7.3608 C   0  0  1  0  0  0  0  0  0  0  0  0
   16.7625   70.3513   -8.0863 C   0  0  1  0  0  0  0  0  0  0  0  0
   17.9483   69.5286   -6.0280 C   0  0  2  0  0  0  0  0  0  0  0  0
   15.6661   70.8858   -7.1550 C   0  0  1  0  0  0  0  0  0  0  0  0
   16.7997   70.1075   -5.1999 C   0  0  1  0  0  0  0  0  0  0  0  0
   19.1184   69.9843   -9.0373 H   0  0  0  0  0  0  0  0  0  0  0  0
   17.6209   70.8666   -9.7874 H   0  0  0  0  0  0  0  0  0  0  0  0
   19.8884   69.2363   -5.8349 H   0  0  0  0  0  0  0  0  0  0  0  0
   14.2441   71.8103   -8.8379 O   0  0  0  0  0  0  0  0  0  0  0  0
   14.2869   70.8387   -7.8091 C   0  0  0  0  0  0  0  0  0  0  0  0
   13.3722   71.7915   -9.2634 H   0  0  0  0  0  0  0  0  0  0  0  0
 25 28  1  0
 25 24  1  0
 25 26  1  6
 25 27  2  0
  1  4  1  0
  1 24  1  0
  1  2  1  1
  1  3  2  0
  6 11  1  0
  6 12  1  0
 29 36  1  0
 29 37  1  0
  9  7  1  1
  7 13  1  0
 10  8  1  6
  8 14  1  0
 37 28  1  6
  4  5  1  0
 33 30  1  6
 30 38  1  0
 34 31  1  6
 31 39  1  0
 35 32  1  1
 32 40  1  0
 41 42  1  0
 41 43  1  0
 15 19  2  0
 16 22  2  0
 12 17  1  1
 17 19  1  0
 17 20  1  0
 18 19  1  0
 18 22  1  0
 18 23  1  0
  9 10  1  0
  9 11  1  0
 10 12  1  0
 11  5  1  1
 33 34  1  0
 33 35  1  0
 34 36  1  0
 35 37  1  0
 36 42  1  6
 20 21  2  0
 21 22  1  0
M  CHG  2   2  -1  26  -1
M  END
>  <COMPND>  (199) 
    8629 

>  <AUTHOR>  (199) 
    GENERATED BY OPEN BABEL 3.1.1

>  <MASTER>  (199) 
        0    0    0    0    0    0    0    0   58    0   58    0

>  <minimizedAffinity>  (199) 
-6.58926

>  <CNNscore>  (199) 
0.3300488293

>  <CNNaffinity>  (199) 
4.0359611511

>  <CNN_VS>  (199) 
1.3320642710

>  <CNNaffinity_variance>  (199) 
0.0664365888

$$$$
200
     RDKit          3D

 43 45  0  0  0  0  0  0  0  0999 V2000
   21.1820   71.2736   -2.1456 P   0  0  2  0  0  0  0  0  0  0  0  0
   22.1006   70.2103   -1.3437 O   0  0  0  0  0  0  0  0  0  0  0  0
   21.8010   71.8316   -3.3934 O   0  0  0  0  0  0  0  0  0  0  0  0
   20.7714   72.3597   -1.0188 O   0  0  0  0  0  0  0  0  0  0  0  0
   21.8041   73.0145   -0.3028 C   0  0  0  0  0  0  0  0  0  0  0  0
   21.6456   75.2979    0.4284 O   0  0  0  0  0  0  0  0  0  0  0  0
   23.0238   76.0183   -2.1353 O   0  0  0  0  0  0  0  0  0  0  0  0
   25.0503   76.1458   -0.3149 O   0  0  0  0  0  0  0  0  0  0  0  0
   23.2186   74.8822   -1.2946 C   0  0  1  0  0  0  0  0  0  0  0  0
   23.9687   75.2789   -0.0401 C   0  0  2  0  0  0  0  0  0  0  0  0
   21.8611   74.4726   -0.7373 C   0  0  1  0  0  0  0  0  0  0  0  0
   22.8786   75.9462    0.7811 C   0  0  2  0  0  0  0  0  0  0  0  0
   23.8772   76.2981   -2.5033 H   0  0  0  0  0  0  0  0  0  0  0  0
   25.7169   75.6753   -0.8392 H   0  0  0  0  0  0  0  0  0  0  0  0
   22.6342   78.0486    2.6514 O   0  0  0  0  0  0  0  0  0  0  0  0
   23.7245   75.2856    6.1753 O   0  0  0  0  0  0  0  0  0  0  0  0
   23.0926   75.8042    2.1937 N   0  0  0  0  0  0  0  0  0  0  0  0
   23.1771   76.6711    4.4045 N   0  0  0  0  0  0  0  0  0  0  0  0
   22.9452   76.9230    3.0463 C   0  0  0  0  0  0  0  0  0  0  0  0
   23.4440   74.5660    2.7203 C   0  0  0  0  0  0  0  0  0  0  0  0
   23.6629   74.3427    4.0178 C   0  0  0  0  0  0  0  0  0  0  0  0
   23.5298   75.4588    4.9762 C   0  0  0  0  0  0  0  0  0  0  0  0
   23.0807   77.4359    5.0174 H   0  0  0  0  0  0  0  0  0  0  0  0
   19.8063   70.4589   -2.3834 O   0  0  0  0  0  0  0  0  0  0  0  0
   18.4496   70.8702   -3.1601 P   0  0  2  0  0  0  0  0  0  0  0  0
   18.2844   72.4414   -2.8115 O   0  0  0  0  0  0  0  0  0  0  0  0
   17.2582   70.0285   -2.8053 O   0  0  0  0  0  0  0  0  0  0  0  0
   18.8487   70.8393   -4.7237 O   0  0  0  0  0  0  0  0  0  0  0  0
   18.4131   72.3154   -6.5259 O   0  0  0  0  0  0  0  0  0  0  0  0
   17.8675   68.7159   -8.4745 O   0  0  0  0  0  0  0  0  0  0  0  0
   20.2085   70.2858   -9.0251 O   0  0  0  0  0  0  0  0  0  0  0  0
   16.9601   69.0317   -5.7438 O   0  0  0  0  0  0  0  0  0  0  0  0
   18.4663   69.6098   -7.5322 C   0  0  1  0  0  0  0  0  0  0  0  0
   19.0824   70.7782   -8.3043 C   0  0  1  0  0  0  0  0  0  0  0  0
   17.3933   70.1095   -6.5667 C   0  0  2  0  0  0  0  0  0  0  0  0
   19.5073   71.9068   -7.3551 C   0  0  1  0  0  0  0  0  0  0  0  0
   17.9042   71.2640   -5.7028 C   0  0  1  0  0  0  0  0  0  0  0  0
   18.5437   68.3946   -9.0902 H   0  0  0  0  0  0  0  0  0  0  0  0
   19.9267   69.5735   -9.6203 H   0  0  0  0  0  0  0  0  0  0  0  0
   16.6388   68.3075   -6.3025 H   0  0  0  0  0  0  0  0  0  0  0  0
   21.2706   72.8896   -8.6332 O   0  0  0  0  0  0  0  0  0  0  0  0
   19.9786   73.1453   -8.1140 C   0  0  0  0  0  0  0  0  0  0  0  0
   21.5834   73.6692   -9.1191 H   0  0  0  0  0  0  0  0  0  0  0  0
 25 28  1  0
 25 24  1  0
 25 26  1  1
 25 27  2  0
  1  4  1  0
  1 24  1  0
  1  2  1  1
  1  3  2  0
  6 11  1  0
  6 12  1  0
 29 36  1  0
 29 37  1  0
  9  7  1  6
  7 13  1  0
 10  8  1  6
  8 14  1  0
 37 28  1  1
  4  5  1  0
 33 30  1  6
 30 38  1  0
 34 31  1  1
 31 39  1  0
 35 32  1  1
 32 40  1  0
 41 42  1  0
 41 43  1  0
 15 19  2  0
 16 22  2  0
 12 17  1  1
 17 19  1  0
 17 20  1  0
 18 19  1  0
 18 22  1  0
 18 23  1  0
  9 10  1  0
  9 11  1  0
 10 12  1  0
 11  5  1  1
 33 34  1  0
 33 35  1  0
 34 36  1  0
 35 37  1  0
 36 42  1  6
 20 21  2  0
 21 22  1  0
M  CHG  2   2  -1  26  -1
M  END
