1
     RDKit          3D

 43 45  0  0  0  0  0  0  0  0999 V2000
   20.9151   70.9873   -1.6632 P   0  0  2  0  0  0  0  0  0  0  0  0
   22.1778   70.7557   -0.6780 O   0  0  0  0  0  0  0  0  0  0  0  0
   19.9002   71.9769   -1.1706 O   0  0  0  0  0  0  0  0  0  0  0  0
   20.3612   69.4930   -1.9428 O   0  0  0  0  0  0  0  0  0  0  0  0
   19.6519   69.2484   -3.1434 C   0  0  0  0  0  0  0  0  0  0  0  0
   17.8606   70.5663   -4.0557 O   0  0  0  0  0  0  0  0  0  0  0  0
   16.0294   68.9308   -2.3343 O   0  0  0  0  0  0  0  0  0  0  0  0
   15.7142   67.7903   -4.7912 O   0  0  0  0  0  0  0  0  0  0  0  0
   17.2131   68.5334   -3.0267 C   0  0  1  0  0  0  0  0  0  0  0  0
   16.9417   68.4308   -4.5127 C   0  0  2  0  0  0  0  0  0  0  0  0
   18.2045   69.6873   -2.9628 C   0  0  1  0  0  0  0  0  0  0  0  0
   16.9493   69.8898   -4.9361 C   0  0  2  0  0  0  0  0  0  0  0  0
   15.3809   68.2094   -2.3616 H   0  0  0  0  0  0  0  0  0  0  0  0
   15.7601   66.8645   -4.5035 H   0  0  0  0  0  0  0  0  0  0  0  0
   15.5570   71.3821   -6.8882 O   0  0  0  0  0  0  0  0  0  0  0  0
   18.7406   70.4941  -10.1008 O   0  0  0  0  0  0  0  0  0  0  0  0
   17.3918   70.0650   -6.2905 N   0  0  0  0  0  0  0  0  0  0  0  0
   17.1434   70.9376   -8.4867 N   0  0  0  0  0  0  0  0  0  0  0  0
   16.6181   70.8337   -7.1919 C   0  0  0  0  0  0  0  0  0  0  0  0
   18.5796   69.4808   -6.7132 C   0  0  0  0  0  0  0  0  0  0  0  0
   19.0676   69.5888   -7.9505 C   0  0  0  0  0  0  0  0  0  0  0  0
   18.3198   70.3743   -8.9541 C   0  0  0  0  0  0  0  0  0  0  0  0
   16.6213   71.4662   -9.1327 H   0  0  0  0  0  0  0  0  0  0  0  0
   21.6162   71.3831   -3.0649 O   0  0  0  0  0  0  0  0  0  0  0  0
   23.0592   72.0395   -3.3818 P   0  0  2  0  0  0  0  0  0  0  0  0
   24.0722   70.7830   -3.2586 O   0  0  0  0  0  0  0  0  0  0  0  0
   23.4111   73.2059   -2.5045 O   0  0  0  0  0  0  0  0  0  0  0  0
   23.0182   72.3763   -4.9589 O   0  0  0  0  0  0  0  0  0  0  0  0
   23.1605   74.7376   -5.0739 O   0  0  0  0  0  0  0  0  0  0  0  0
   23.2672   73.6934   -9.0697 O   0  0  0  0  0  0  0  0  0  0  0  0
   21.4247   72.3569   -7.2385 O   0  0  0  0  0  0  0  0  0  0  0  0
   25.7019   74.5163   -7.7110 O   0  0  0  0  0  0  0  0  0  0  0  0
   23.5058   73.5260   -7.6722 C   0  0  2  0  0  0  0  0  0  0  0  0
   22.1736   73.5246   -6.9221 C   0  0  2  0  0  0  0  0  0  0  0  0
   24.3817   74.6884   -7.1994 C   0  0  1  0  0  0  0  0  0  0  0  0
   22.3970   73.5785   -5.4101 C   0  0  1  0  0  0  0  0  0  0  0  0
   24.4529   74.7487   -5.6763 C   0  0  1  0  0  0  0  0  0  0  0  0
   22.7123   72.9660   -9.3926 H   0  0  0  0  0  0  0  0  0  0  0  0
   21.2795   72.3161   -8.1964 H   0  0  0  0  0  0  0  0  0  0  0  0
   25.6707   74.4762   -8.6797 H   0  0  0  0  0  0  0  0  0  0  0  0
   24.9275   76.1752   -3.8759 O   0  0  0  0  0  0  0  0  0  0  0  0
   25.5122   76.8981   -5.9579 O   0  0  0  0  0  0  0  0  0  0  0  0
   25.0231   76.0532   -5.2231 C   0  0  0  0  0  0  0  0  0  0  0  0
  1  4  1  0
  1 24  1  0
  1  2  1  1
  1  3  2  0
 25 28  1  0
 25 24  1  0
 25 26  1  6
 25 27  2  0
  6 11  1  0
  6 12  1  0
 29 36  1  0
 29 37  1  0
  9  7  1  1
  7 13  1  0
 10  8  1  1
  8 14  1  0
  4  5  1  0
 36 28  1  6
 33 30  1  6
 30 38  1  0
 34 31  1  1
 31 39  1  0
 35 32  1  6
 32 40  1  0
 41 43  1  0
 15 19  2  0
 42 43  2  0
 16 22  2  0
 12 17  1  6
 17 19  1  0
 17 20  1  0
 18 19  1  0
 18 22  1  0
 18 23  1  0
  9 10  1  0
  9 11  1  0
 10 12  1  0
 11  5  1  6
 33 34  1  0
 33 35  1  0
 34 36  1  0
 35 37  1  0
 37 43  1  6
 20 21  2  0
 21 22  1  0
M  CHG  3   2  -1  26  -1  41  -1
M  END
>  <COMPND>  (1) 
    udp_gluA.pdb 

>  <AUTHOR>  (1) 
    GENERATED BY OPEN BABEL 3.1.1

>  <MASTER>  (1) 
        0    0    0    0    0    0    0    0   56    0   56    0

>  <minimizedAffinity>  (1) 
-8.19535

>  <CNNscore>  (1) 
0.6761229634

>  <CNNaffinity>  (1) 
4.5986189842

>  <CNN_VS>  (1) 
3.1092319489

>  <CNNaffinity_variance>  (1) 
0.4637969136

$$$$
2
     RDKit          3D

 43 45  0  0  0  0  0  0  0  0999 V2000
   22.5322   73.5355   -6.6061 P   0  0  2  0  0  0  0  0  0  0  0  0
   22.3820   74.6061   -7.8103 O   0  0  0  0  0  0  0  0  0  0  0  0
   23.9421   73.1280   -6.2928 O   0  0  0  0  0  0  0  0  0  0  0  0
   21.5309   72.3358   -7.0257 O   0  0  0  0  0  0  0  0  0  0  0  0
   20.1402   72.5983   -7.0647 C   0  0  0  0  0  0  0  0  0  0  0  0
   19.6916   70.2494   -6.8222 O   0  0  0  0  0  0  0  0  0  0  0  0
   17.3990   70.6824   -8.7057 O   0  0  0  0  0  0  0  0  0  0  0  0
   16.1674   70.6141   -6.2737 O   0  0  0  0  0  0  0  0  0  0  0  0
   17.9098   71.5464   -7.6903 C   0  0  1  0  0  0  0  0  0  0  0  0
   17.5141   71.0369   -6.3206 C   0  0  2  0  0  0  0  0  0  0  0  0
   19.4245   71.3935   -7.6617 C   0  0  1  0  0  0  0  0  0  0  0  0
   18.4934   69.8940   -6.1142 C   0  0  2  0  0  0  0  0  0  0  0  0
   16.4326   70.7626   -8.7429 H   0  0  0  0  0  0  0  0  0  0  0  0
   15.5839   71.3775   -6.4102 H   0  0  0  0  0  0  0  0  0  0  0  0
   16.7952   68.6081   -4.2596 O   0  0  0  0  0  0  0  0  0  0  0  0
   19.8208   69.1636   -0.8272 O   0  0  0  0  0  0  0  0  0  0  0  0
   18.8124   69.6891   -4.7296 N   0  0  0  0  0  0  0  0  0  0  0  0
   18.3033   68.8869   -2.5517 N   0  0  0  0  0  0  0  0  0  0  0  0
   17.8893   69.0318   -3.8823 C   0  0  0  0  0  0  0  0  0  0  0  0
   20.0277   70.1351   -4.2246 C   0  0  0  0  0  0  0  0  0  0  0  0
   20.4083   69.9897   -2.9538 C   0  0  0  0  0  0  0  0  0  0  0  0
   19.5014   69.3143   -2.0026 C   0  0  0  0  0  0  0  0  0  0  0  0
   17.6765   68.4341   -1.9422 H   0  0  0  0  0  0  0  0  0  0  0  0
   21.7509   74.2506   -5.3851 O   0  0  0  0  0  0  0  0  0  0  0  0
   22.2405   75.3612   -4.3171 P   0  0  2  0  0  0  0  0  0  0  0  0
   21.0202   76.4248   -4.3038 O   0  0  0  0  0  0  0  0  0  0  0  0
   23.5814   75.9624   -4.6248 O   0  0  0  0  0  0  0  0  0  0  0  0
   22.1510   74.6209   -2.8866 O   0  0  0  0  0  0  0  0  0  0  0  0
   22.3138   72.2715   -2.6358 O   0  0  0  0  0  0  0  0  0  0  0  0
   20.3457   73.3529    0.8320 O   0  0  0  0  0  0  0  0  0  0  0  0
   19.6257   74.5749   -1.7220 O   0  0  0  0  0  0  0  0  0  0  0  0
   23.1650   72.6488    0.9132 O   0  0  0  0  0  0  0  0  0  0  0  0
   21.2499   73.5211   -0.2599 C   0  0  2  0  0  0  0  0  0  0  0  0
   20.4796   73.4458   -1.5784 C   0  0  2  0  0  0  0  0  0  0  0  0
   22.2920   72.4028   -0.1876 C   0  0  1  0  0  0  0  0  0  0  0  0
   21.4376   73.3913   -2.7693 C   0  0  1  0  0  0  0  0  0  0  0  0
   23.1246   72.3338   -1.4645 C   0  0  1  0  0  0  0  0  0  0  0  0
   19.6741   74.0525    0.8066 H   0  0  0  0  0  0  0  0  0  0  0  0
   19.0153   74.6158   -0.9696 H   0  0  0  0  0  0  0  0  0  0  0  0
   22.6475   72.6952    1.7322 H   0  0  0  0  0  0  0  0  0  0  0  0
   24.0808   70.6678   -2.8105 O   0  0  0  0  0  0  0  0  0  0  0  0
   24.3171   70.4444   -0.5537 O   0  0  0  0  0  0  0  0  0  0  0  0
   23.8991   71.0576   -1.5244 C   0  0  0  0  0  0  0  0  0  0  0  0
  1  4  1  0
  1 24  1  0
  1  2  1  6
  1  3  2  0
 25 28  1  0
 25 24  1  0
 25 26  1  1
 25 27  2  0
  6 11  1  0
  6 12  1  0
 29 36  1  0
 29 37  1  0
  9  7  1  6
  7 13  1  0
 10  8  1  6
  8 14  1  0
  4  5  1  0
 36 28  1  1
 33 30  1  1
 30 38  1  0
 34 31  1  6
 31 39  1  0
 35 32  1  1
 32 40  1  0
 41 43  1  0
 15 19  2  0
 42 43  2  0
 16 22  2  0
 12 17  1  1
 17 19  1  0
 17 20  1  0
 18 19  1  0
 18 22  1  0
 18 23  1  0
  9 10  1  0
  9 11  1  0
 10 12  1  0
 11  5  1  1
 33 34  1  0
 33 35  1  0
 34 36  1  0
 35 37  1  0
 37 43  1  1
 20 21  2  0
 21 22  1  0
M  CHG  3   2  -1  26  -1  41  -1
M  END
>  <COMPND>  (2) 
    udp_gluA.pdb 

>  <AUTHOR>  (2) 
    GENERATED BY OPEN BABEL 3.1.1

>  <MASTER>  (2) 
        0    0    0    0    0    0    0    0   56    0   56    0

>  <minimizedAffinity>  (2) 
-7.90064

>  <CNNscore>  (2) 
0.6489997506

>  <CNNaffinity>  (2) 
4.4120669365

>  <CNN_VS>  (2) 
2.8634302616

>  <CNNaffinity_variance>  (2) 
0.5080008507

$$$$
3
     RDKit          3D

 43 45  0  0  0  0  0  0  0  0999 V2000
   20.4928   70.5640   -1.6372 P   0  0  2  0  0  0  0  0  0  0  0  0
   20.1824   69.3286   -0.6391 O   0  0  0  0  0  0  0  0  0  0  0  0
   19.6478   71.7843   -1.4168 O   0  0  0  0  0  0  0  0  0  0  0  0
   20.4029   69.9041   -3.1118 O   0  0  0  0  0  0  0  0  0  0  0  0
   19.5181   68.8173   -3.3134 C   0  0  0  0  0  0  0  0  0  0  0  0
   17.8019   70.2616   -4.1773 O   0  0  0  0  0  0  0  0  0  0  0  0
   15.8687   68.6011   -2.5970 O   0  0  0  0  0  0  0  0  0  0  0  0
   15.5627   67.6270   -5.1255 O   0  0  0  0  0  0  0  0  0  0  0  0
   17.0506   68.1981   -3.2892 C   0  0  1  0  0  0  0  0  0  0  0  0
   16.8084   68.1979   -4.7837 C   0  0  2  0  0  0  0  0  0  0  0  0
   18.0858   69.3039   -3.1344 C   0  0  1  0  0  0  0  0  0  0  0  0
   16.8839   69.6785   -5.1157 C   0  0  2  0  0  0  0  0  0  0  0  0
   15.1925   67.9103   -2.6817 H   0  0  0  0  0  0  0  0  0  0  0  0
   15.5649   66.6842   -4.8950 H   0  0  0  0  0  0  0  0  0  0  0  0
   15.5617   71.2910   -7.0204 O   0  0  0  0  0  0  0  0  0  0  0  0
   18.8139   70.5255  -10.1956 O   0  0  0  0  0  0  0  0  0  0  0  0
   17.3629   69.9177   -6.4477 N   0  0  0  0  0  0  0  0  0  0  0  0
   17.1822   70.9074   -8.6004 N   0  0  0  0  0  0  0  0  0  0  0  0
   16.6228   70.7437   -7.3263 C   0  0  0  0  0  0  0  0  0  0  0  0
   18.5533   69.3390   -6.8710 C   0  0  0  0  0  0  0  0  0  0  0  0
   19.0739   69.5043   -8.0885 C   0  0  0  0  0  0  0  0  0  0  0  0
   18.3625   70.3521   -9.0676 C   0  0  0  0  0  0  0  0  0  0  0  0
   16.6839   71.4766   -9.2304 H   0  0  0  0  0  0  0  0  0  0  0  0
   22.0798   70.7995   -1.4407 O   0  0  0  0  0  0  0  0  0  0  0  0
   23.1343   71.6855   -2.2872 P   0  0  2  0  0  0  0  0  0  0  0  0
   24.3155   70.6317   -2.6253 O   0  0  0  0  0  0  0  0  0  0  0  0
   23.5973   72.9291   -1.5849 O   0  0  0  0  0  0  0  0  0  0  0  0
   22.4054   71.9478   -3.7022 O   0  0  0  0  0  0  0  0  0  0  0  0
   23.0655   74.0266   -4.6253 O   0  0  0  0  0  0  0  0  0  0  0  0
   20.1902   72.7855   -7.3198 O   0  0  0  0  0  0  0  0  0  0  0  0
   19.7729   72.4475   -4.4482 O   0  0  0  0  0  0  0  0  0  0  0  0
   23.0088   72.6104   -8.0095 O   0  0  0  0  0  0  0  0  0  0  0  0
   21.2434   72.6216   -6.3700 C   0  0  2  0  0  0  0  0  0  0  0  0
   20.8193   73.2181   -5.0277 C   0  0  2  0  0  0  0  0  0  0  0  0
   22.4808   73.3446   -6.9066 C   0  0  1  0  0  0  0  0  0  0  0  0
   21.9981   73.2687   -4.0547 C   0  0  1  0  0  0  0  0  0  0  0  0
   23.5631   73.4647   -5.8376 C   0  0  1  0  0  0  0  0  0  0  0  0
   19.3931   72.3342   -7.0000 H   0  0  0  0  0  0  0  0  0  0  0  0
   19.0217   72.4109   -5.0604 H   0  0  0  0  0  0  0  0  0  0  0  0
   22.3297   72.5266   -8.6971 H   0  0  0  0  0  0  0  0  0  0  0  0
   24.5416   75.5703   -5.5052 O   0  0  0  0  0  0  0  0  0  0  0  0
   25.4308   74.2571   -7.1435 O   0  0  0  0  0  0  0  0  0  0  0  0
   24.6138   74.4420   -6.2539 C   0  0  0  0  0  0  0  0  0  0  0  0
  1  4  1  0
  1 24  1  0
  1  2  1  1
  1  3  2  0
 25 28  1  0
 25 24  1  0
 25 26  1  6
 25 27  2  0
  6 11  1  0
  6 12  1  0
 29 36  1  0
 29 37  1  0
  9  7  1  1
  7 13  1  0
 10  8  1  1
  8 14  1  0
  4  5  1  0
 36 28  1  6
 33 30  1  6
 30 38  1  0
 34 31  1  1
 31 39  1  0
 35 32  1  6
 32 40  1  0
 41 43  1  0
 15 19  2  0
 42 43  2  0
 16 22  2  0
 12 17  1  6
 17 19  1  0
 17 20  1  0
 18 19  1  0
 18 22  1  0
 18 23  1  0
  9 10  1  0
  9 11  1  0
 10 12  1  0
 11  5  1  6
 33 34  1  0
 33 35  1  0
 34 36  1  0
 35 37  1  0
 37 43  1  6
 20 21  2  0
 21 22  1  0
M  CHG  3   2  -1  26  -1  41  -1
M  END
>  <COMPND>  (3) 
    udp_gluA.pdb 

>  <AUTHOR>  (3) 
    GENERATED BY OPEN BABEL 3.1.1

>  <MASTER>  (3) 
        0    0    0    0    0    0    0    0   56    0   56    0

>  <minimizedAffinity>  (3) 
-8.79325

>  <CNNscore>  (3) 
0.6440647244

>  <CNNaffinity>  (3) 
4.5039610863

>  <CNN_VS>  (3) 
2.9008424282

>  <CNNaffinity_variance>  (3) 
0.5543066859

$$$$
4
     RDKit          3D

 43 45  0  0  0  0  0  0  0  0999 V2000
   20.2762   70.6889   -1.3835 P   0  0  2  0  0  0  0  0  0  0  0  0
   20.4507   69.2598   -0.6446 O   0  0  0  0  0  0  0  0  0  0  0  0
   20.0179   71.8487   -0.4670 O   0  0  0  0  0  0  0  0  0  0  0  0
   19.1411   70.4116   -2.5028 O   0  0  0  0  0  0  0  0  0  0  0  0
   18.5615   71.5195   -3.1669 C   0  0  0  0  0  0  0  0  0  0  0  0
   16.6673   71.6284   -4.6427 O   0  0  0  0  0  0  0  0  0  0  0  0
   15.2811   69.8179   -2.6954 O   0  0  0  0  0  0  0  0  0  0  0  0
   16.0358   68.0993   -4.6735 O   0  0  0  0  0  0  0  0  0  0  0  0
   16.6529   69.8390   -3.0908 C   0  0  1  0  0  0  0  0  0  0  0  0
   16.8054   69.2684   -4.4849 C   0  0  2  0  0  0  0  0  0  0  0  0
   17.0608   71.2917   -3.2947 C   0  0  1  0  0  0  0  0  0  0  0  0
   16.3354   70.4241   -5.3517 C   0  0  2  0  0  0  0  0  0  0  0  0
   14.9976   68.8999   -2.5591 H   0  0  0  0  0  0  0  0  0  0  0  0
   16.3745   67.3933   -4.1001 H   0  0  0  0  0  0  0  0  0  0  0  0
   15.2706   71.6694   -7.6521 O   0  0  0  0  0  0  0  0  0  0  0  0
   18.8959   70.4397  -10.2191 O   0  0  0  0  0  0  0  0  0  0  0  0
   16.9800   70.4445   -6.6343 N   0  0  0  0  0  0  0  0  0  0  0  0
   17.0768   71.0549   -8.9287 N   0  0  0  0  0  0  0  0  0  0  0  0
   16.3600   71.0977   -7.7256 C   0  0  0  0  0  0  0  0  0  0  0  0
   18.2124   69.8244   -6.8011 C   0  0  0  0  0  0  0  0  0  0  0  0
   18.8835   69.7921   -7.9540 C   0  0  0  0  0  0  0  0  0  0  0  0
   18.3047   70.4503   -9.1436 C   0  0  0  0  0  0  0  0  0  0  0  0
   16.6641   71.5011   -9.7033 H   0  0  0  0  0  0  0  0  0  0  0  0
   21.6286   70.8117   -2.2602 O   0  0  0  0  0  0  0  0  0  0  0  0
   23.0712   71.4481   -1.9028 P   0  0  2  0  0  0  0  0  0  0  0  0
   24.0877   70.6133   -2.8463 O   0  0  0  0  0  0  0  0  0  0  0  0
   23.4144   71.4138   -0.4417 O   0  0  0  0  0  0  0  0  0  0  0  0
   23.0376   72.9262   -2.5482 O   0  0  0  0  0  0  0  0  0  0  0  0
   22.9294   74.5899   -0.8660 O   0  0  0  0  0  0  0  0  0  0  0  0
   22.5967   76.8512   -4.3074 O   0  0  0  0  0  0  0  0  0  0  0  0
   21.1600   74.3202   -4.0539 O   0  0  0  0  0  0  0  0  0  0  0  0
   25.0997   76.8023   -2.8298 O   0  0  0  0  0  0  0  0  0  0  0  0
   23.0377   75.7554   -3.5057 C   0  0  2  0  0  0  0  0  0  0  0  0
   21.8259   74.9822   -2.9848 C   0  0  2  0  0  0  0  0  0  0  0  0
   23.8504   76.3203   -2.3386 C   0  0  1  0  0  0  0  0  0  0  0  0
   22.2455   73.9457   -1.9415 C   0  0  1  0  0  0  0  0  0  0  0  0
   24.1208   75.2545   -1.2805 C   0  0  1  0  0  0  0  0  0  0  0  0
   22.0777   76.5164   -5.0557 H   0  0  0  0  0  0  0  0  0  0  0  0
   20.8912   74.9719   -4.7198 H   0  0  0  0  0  0  0  0  0  0  0  0
   24.9417   77.4814   -3.5042 H   0  0  0  0  0  0  0  0  0  0  0  0
   23.8500   75.4948    1.0369 O   0  0  0  0  0  0  0  0  0  0  0  0
   25.5778   76.6248    0.0689 O   0  0  0  0  0  0  0  0  0  0  0  0
   24.6156   75.8765   -0.0154 C   0  0  0  0  0  0  0  0  0  0  0  0
  1  4  1  0
  1 24  1  0
  1  2  1  1
  1  3  2  0
 25 28  1  0
 25 24  1  0
 25 26  1  6
 25 27  2  0
  6 11  1  0
  6 12  1  0
 29 36  1  0
 29 37  1  0
  9  7  1  6
  7 13  1  0
 10  8  1  1
  8 14  1  0
  4  5  1  0
 36 28  1  6
 33 30  1  6
 30 38  1  0
 34 31  1  6
 31 39  1  0
 35 32  1  6
 32 40  1  0
 41 43  1  0
 15 19  2  0
 42 43  2  0
 16 22  2  0
 12 17  1  6
 17 19  1  0
 17 20  1  0
 18 19  1  0
 18 22  1  0
 18 23  1  0
  9 10  1  0
  9 11  1  0
 10 12  1  0
 11  5  1  6
 33 34  1  0
 33 35  1  0
 34 36  1  0
 35 37  1  0
 37 43  1  1
 20 21  2  0
 21 22  1  0
M  CHG  3   2  -1  26  -1  41  -1
M  END
>  <COMPND>  (4) 
    udp_gluA.pdb 

>  <AUTHOR>  (4) 
    GENERATED BY OPEN BABEL 3.1.1

>  <MASTER>  (4) 
        0    0    0    0    0    0    0    0   56    0   56    0

>  <minimizedAffinity>  (4) 
-7.51333

>  <CNNscore>  (4) 
0.5969741940

>  <CNNaffinity>  (4) 
4.5803003311

>  <CNN_VS>  (4) 
2.7343211174

>  <CNNaffinity_variance>  (4) 
0.0175993964

$$$$
5
     RDKit          3D

 43 45  0  0  0  0  0  0  0  0999 V2000
   19.9976   70.7056   -1.2651 P   0  0  2  0  0  0  0  0  0  0  0  0
   20.0336   69.1907   -0.6971 O   0  0  0  0  0  0  0  0  0  0  0  0
   19.3773   71.7136   -0.3426 O   0  0  0  0  0  0  0  0  0  0  0  0
   19.2999   70.5595   -2.7176 O   0  0  0  0  0  0  0  0  0  0  0  0
   18.4608   71.6051   -3.1728 C   0  0  0  0  0  0  0  0  0  0  0  0
   16.5734   71.3398   -4.6374 O   0  0  0  0  0  0  0  0  0  0  0  0
   15.5938   69.2744   -2.6966 O   0  0  0  0  0  0  0  0  0  0  0  0
   16.6655   67.7561   -4.6922 O   0  0  0  0  0  0  0  0  0  0  0  0
   16.9305   69.5740   -3.0993 C   0  0  1  0  0  0  0  0  0  0  0  0
   17.1851   69.0550   -4.4986 C   0  0  2  0  0  0  0  0  0  0  0  0
   17.0359   71.0804   -3.2942 C   0  0  1  0  0  0  0  0  0  0  0  0
   16.4859   70.0979   -5.3539 C   0  0  2  0  0  0  0  0  0  0  0  0
   15.5020   68.3173   -2.5660 H   0  0  0  0  0  0  0  0  0  0  0  0
   17.1434   67.1291   -4.1261 H   0  0  0  0  0  0  0  0  0  0  0  0
   15.3069   71.4504   -7.5350 O   0  0  0  0  0  0  0  0  0  0  0  0
   18.9504   70.6437  -10.2402 O   0  0  0  0  0  0  0  0  0  0  0  0
   17.1044   70.2562   -6.6398 N   0  0  0  0  0  0  0  0  0  0  0  0
   17.1223   71.0465   -8.8806 N   0  0  0  0  0  0  0  0  0  0  0  0
   16.4266   70.9529   -7.6680 C   0  0  0  0  0  0  0  0  0  0  0  0
   18.3679   69.7264   -6.8716 C   0  0  0  0  0  0  0  0  0  0  0  0
   19.0183   69.8238   -8.0327 C   0  0  0  0  0  0  0  0  0  0  0  0
   18.3796   70.5356   -9.1591 C   0  0  0  0  0  0  0  0  0  0  0  0
   16.6697   71.5253   -9.6122 H   0  0  0  0  0  0  0  0  0  0  0  0
   21.5454   70.9922   -1.6326 O   0  0  0  0  0  0  0  0  0  0  0  0
   22.5951   72.0696   -1.0402 P   0  0  2  0  0  0  0  0  0  0  0  0
   23.8494   71.1527   -0.5859 O   0  0  0  0  0  0  0  0  0  0  0  0
   22.0370   72.9380    0.0499 O   0  0  0  0  0  0  0  0  0  0  0  0
   23.1271   72.8759   -2.3322 O   0  0  0  0  0  0  0  0  0  0  0  0
   22.6557   75.0420   -3.1661 O   0  0  0  0  0  0  0  0  0  0  0  0
   23.0901   72.8738   -6.6559 O   0  0  0  0  0  0  0  0  0  0  0  0
   21.6280   71.7532   -4.3885 O   0  0  0  0  0  0  0  0  0  0  0  0
   25.2081   74.6592   -5.7739 O   0  0  0  0  0  0  0  0  0  0  0  0
   23.3425   73.2127   -5.2922 C   0  0  2  0  0  0  0  0  0  0  0  0
   22.0445   73.1099   -4.4908 C   0  0  2  0  0  0  0  0  0  0  0  0
   23.8805   74.6448   -5.2525 C   0  0  1  0  0  0  0  0  0  0  0  0
   22.2231   73.6834   -3.0843 C   0  0  1  0  0  0  0  0  0  0  0  0
   23.9103   75.1894   -3.8274 C   0  0  1  0  0  0  0  0  0  0  0  0
   22.7473   71.9676   -6.7059 H   0  0  0  0  0  0  0  0  0  0  0  0
   21.5131   71.3828   -5.2774 H   0  0  0  0  0  0  0  0  0  0  0  0
   25.2031   74.3147   -6.6807 H   0  0  0  0  0  0  0  0  0  0  0  0
   25.4393   76.9680   -3.8468 O   0  0  0  0  0  0  0  0  0  0  0  0
   23.2227   77.5021   -3.8190 O   0  0  0  0  0  0  0  0  0  0  0  0
   24.1166   76.6692   -3.8292 C   0  0  0  0  0  0  0  0  0  0  0  0
  1  4  1  0
  1 24  1  0
  1  2  1  1
  1  3  2  0
 25 28  1  0
 25 24  1  0
 25 26  1  1
 25 27  2  0
  6 11  1  0
  6 12  1  0
 29 36  1  0
 29 37  1  0
  9  7  1  6
  7 13  1  0
 10  8  1  1
  8 14  1  0
  4  5  1  0
 36 28  1  1
 33 30  1  6
 30 38  1  0
 34 31  1  1
 31 39  1  0
 35 32  1  1
 32 40  1  0
 41 43  1  0
 15 19  2  0
 42 43  2  0
 16 22  2  0
 12 17  1  6
 17 19  1  0
 17 20  1  0
 18 19  1  0
 18 22  1  0
 18 23  1  0
  9 10  1  0
  9 11  1  0
 10 12  1  0
 11  5  1  6
 33 34  1  0
 33 35  1  0
 34 36  1  0
 35 37  1  0
 37 43  1  6
 20 21  2  0
 21 22  1  0
M  CHG  3   2  -1  26  -1  41  -1
M  END
>  <COMPND>  (5) 
    udp_gluA.pdb 

>  <AUTHOR>  (5) 
    GENERATED BY OPEN BABEL 3.1.1

>  <MASTER>  (5) 
        0    0    0    0    0    0    0    0   56    0   56    0

>  <minimizedAffinity>  (5) 
-7.79128

>  <CNNscore>  (5) 
0.4954937696

>  <CNNaffinity>  (5) 
4.3686361313

>  <CNN_VS>  (5) 
2.1646320820

>  <CNNaffinity_variance>  (5) 
0.1569248140

$$$$
6
     RDKit          3D

 43 45  0  0  0  0  0  0  0  0999 V2000
   18.6770   69.1760   -4.1770 P   0  0  2  0  0  0  0  0  0  0  0  0
   19.6463   68.1467   -3.3896 O   0  0  0  0  0  0  0  0  0  0  0  0
   17.2258   68.7946   -4.1912 O   0  0  0  0  0  0  0  0  0  0  0  0
   19.3759   69.3353   -5.6276 O   0  0  0  0  0  0  0  0  0  0  0  0
   19.1376   70.5192   -6.3665 C   0  0  0  0  0  0  0  0  0  0  0  0
   16.9130   70.3777   -7.2659 O   0  0  0  0  0  0  0  0  0  0  0  0
   18.2063   70.3875   -9.9712 O   0  0  0  0  0  0  0  0  0  0  0  0
   17.3513   72.9637   -9.7102 O   0  0  0  0  0  0  0  0  0  0  0  0
   18.5871   71.0850   -8.7850 C   0  0  1  0  0  0  0  0  0  0  0  0
   17.6440   72.2421   -8.5319 C   0  0  2  0  0  0  0  0  0  0  0  0
   18.3046   70.1777   -7.5954 C   0  0  1  0  0  0  0  0  0  0  0  0
   16.4259   71.5370   -7.9602 C   0  0  2  0  0  0  0  0  0  0  0  0
   18.3775   70.9474  -10.7450 H   0  0  0  0  0  0  0  0  0  0  0  0
   18.1584   73.3943  -10.0345 H   0  0  0  0  0  0  0  0  0  0  0  0
   14.3259   73.2776   -8.6929 O   0  0  0  0  0  0  0  0  0  0  0  0
   13.7032   74.6541   -4.3384 O   0  0  0  0  0  0  0  0  0  0  0  0
   15.6977   72.3618   -7.0382 N   0  0  0  0  0  0  0  0  0  0  0  0
   14.0184   73.9623   -6.5235 N   0  0  0  0  0  0  0  0  0  0  0  0
   14.6606   73.2012   -7.5092 C   0  0  0  0  0  0  0  0  0  0  0  0
   16.0116   72.3332   -5.6848 C   0  0  0  0  0  0  0  0  0  0  0  0
   15.3906   73.0643   -4.7572 C   0  0  0  0  0  0  0  0  0  0  0  0
   14.2955   73.9683   -5.1661 C   0  0  0  0  0  0  0  0  0  0  0  0
   13.2942   74.5558   -6.8277 H   0  0  0  0  0  0  0  0  0  0  0  0
   18.9944   70.5912   -3.4634 O   0  0  0  0  0  0  0  0  0  0  0  0
   18.5422   71.1810   -2.0276 P   0  0  2  0  0  0  0  0  0  0  0  0
   18.7594   69.9268   -1.0276 O   0  0  0  0  0  0  0  0  0  0  0  0
   17.1553   71.7554   -2.0070 O   0  0  0  0  0  0  0  0  0  0  0  0
   19.7054   72.2254   -1.6295 O   0  0  0  0  0  0  0  0  0  0  0  0
   21.8855   71.3723   -1.9885 O   0  0  0  0  0  0  0  0  0  0  0  0
   22.6825   74.9096   -0.0085 O   0  0  0  0  0  0  0  0  0  0  0  0
   20.4874   73.1885    0.8599 O   0  0  0  0  0  0  0  0  0  0  0  0
   23.1122   74.7141   -2.8769 O   0  0  0  0  0  0  0  0  0  0  0  0
   21.9583   74.0351   -0.8738 C   0  0  2  0  0  0  0  0  0  0  0  0
   21.4823   72.8143   -0.0861 C   0  0  2  0  0  0  0  0  0  0  0  0
   22.8955   73.6063   -2.0050 C   0  0  1  0  0  0  0  0  0  0  0  0
   20.9052   71.7507   -1.0213 C   0  0  1  0  0  0  0  0  0  0  0  0
   22.3021   72.4571   -2.8147 C   0  0  1  0  0  0  0  0  0  0  0  0
   22.1068   75.1951    0.7184 H   0  0  0  0  0  0  0  0  0  0  0  0
   20.8467   73.8634    1.4564 H   0  0  0  0  0  0  0  0  0  0  0  0
   23.4897   75.4526   -2.3739 H   0  0  0  0  0  0  0  0  0  0  0  0
   23.7642   70.6568   -3.1647 O   0  0  0  0  0  0  0  0  0  0  0  0
   23.7537   72.3088   -4.7362 O   0  0  0  0  0  0  0  0  0  0  0  0
   23.3401   71.8330   -3.6896 C   0  0  0  0  0  0  0  0  0  0  0  0
  1  4  1  0
  1 24  1  0
  1  2  1  1
  1  3  2  0
 25 28  1  0
 25 24  1  0
 25 26  1  1
 25 27  2  0
  6 11  1  0
  6 12  1  0
 29 36  1  0
 29 37  1  0
  9  7  1  6
  7 13  1  0
 10  8  1  6
  8 14  1  0
  4  5  1  0
 36 28  1  6
 33 30  1  1
 30 38  1  0
 34 31  1  1
 31 39  1  0
 35 32  1  6
 32 40  1  0
 41 43  1  0
 15 19  2  0
 42 43  2  0
 16 22  2  0
 12 17  1  1
 17 19  1  0
 17 20  1  0
 18 19  1  0
 18 22  1  0
 18 23  1  0
  9 10  1  0
  9 11  1  0
 10 12  1  0
 11  5  1  1
 33 34  1  0
 33 35  1  0
 34 36  1  0
 35 37  1  0
 37 43  1  6
 20 21  2  0
 21 22  1  0
M  CHG  3   2  -1  26  -1  41  -1
M  END
>  <COMPND>  (6) 
    udp_gluA.pdb 

>  <AUTHOR>  (6) 
    GENERATED BY OPEN BABEL 3.1.1

>  <MASTER>  (6) 
        0    0    0    0    0    0    0    0   56    0   56    0

>  <minimizedAffinity>  (6) 
-8.26513

>  <CNNscore>  (6) 
0.4837395549

>  <CNNaffinity>  (6) 
4.3792290688

>  <CNN_VS>  (6) 
2.1184062958

>  <CNNaffinity_variance>  (6) 
0.1830136627

$$$$
7
     RDKit          3D

 43 45  0  0  0  0  0  0  0  0999 V2000
   16.4014   70.7794   -3.0087 P   0  0  2  0  0  0  0  0  0  0  0  0
   15.9386   69.7360   -4.1559 O   0  0  0  0  0  0  0  0  0  0  0  0
   15.9606   70.4284   -1.6179 O   0  0  0  0  0  0  0  0  0  0  0  0
   15.9003   72.2143   -3.5635 O   0  0  0  0  0  0  0  0  0  0  0  0
   14.9980   72.2398   -4.6542 C   0  0  0  0  0  0  0  0  0  0  0  0
   16.6647   73.2351   -6.0717 O   0  0  0  0  0  0  0  0  0  0  0  0
   14.4427   74.9037   -7.1986 O   0  0  0  0  0  0  0  0  0  0  0  0
   14.7610   72.9736   -9.0985 O   0  0  0  0  0  0  0  0  0  0  0  0
   14.4195   73.5452   -6.7599 C   0  0  1  0  0  0  0  0  0  0  0  0
   15.1159   72.6566   -7.7688 C   0  0  2  0  0  0  0  0  0  0  0  0
   15.3330   73.4274   -5.5475 C   0  0  1  0  0  0  0  0  0  0  0  0
   16.5805   72.9314   -7.4732 C   0  0  2  0  0  0  0  0  0  0  0  0
   13.8662   75.0037   -7.9727 H   0  0  0  0  0  0  0  0  0  0  0  0
   13.8198   72.7809   -9.2366 H   0  0  0  0  0  0  0  0  0  0  0  0
   17.7307   72.3925   -9.9957 O   0  0  0  0  0  0  0  0  0  0  0  0
   19.7784   68.5644   -8.4477 O   0  0  0  0  0  0  0  0  0  0  0  0
   17.4184   71.8009   -7.7572 N   0  0  0  0  0  0  0  0  0  0  0  0
   18.7486   70.4859   -9.2225 N   0  0  0  0  0  0  0  0  0  0  0  0
   17.9456   71.6221   -9.0580 C   0  0  0  0  0  0  0  0  0  0  0  0
   17.7114   70.8853   -6.7538 C   0  0  0  0  0  0  0  0  0  0  0  0
   18.4785   69.8070   -6.9258 C   0  0  0  0  0  0  0  0  0  0  0  0
   19.0679   69.5465   -8.2555 C   0  0  0  0  0  0  0  0  0  0  0  0
   19.1254   70.3391  -10.1202 H   0  0  0  0  0  0  0  0  0  0  0  0
   18.0038   70.8517   -3.2091 O   0  0  0  0  0  0  0  0  0  0  0  0
   19.2134   70.2664   -2.3102 P   0  0  2  0  0  0  0  0  0  0  0  0
   20.2789   69.7510   -3.4145 O   0  0  0  0  0  0  0  0  0  0  0  0
   18.7936   69.2190   -1.3199 O   0  0  0  0  0  0  0  0  0  0  0  0
   19.9038   71.5688   -1.6550 O   0  0  0  0  0  0  0  0  0  0  0  0
   22.0318   70.8380   -0.9155 O   0  0  0  0  0  0  0  0  0  0  0  0
   22.1882   74.8779   -0.0654 O   0  0  0  0  0  0  0  0  0  0  0  0
   19.7646   73.3419    0.4834 O   0  0  0  0  0  0  0  0  0  0  0  0
   23.6220   73.8128   -2.3590 O   0  0  0  0  0  0  0  0  0  0  0  0
   21.7951   73.7132   -0.7914 C   0  0  2  0  0  0  0  0  0  0  0  0
   21.0201   72.7723    0.1314 C   0  0  2  0  0  0  0  0  0  0  0  0
   23.0622   73.0279   -1.3079 C   0  0  1  0  0  0  0  0  0  0  0  0
   20.7823   71.4196   -0.5411 C   0  0  1  0  0  0  0  0  0  0  0  0
   22.7603   71.6331   -1.8483 C   0  0  1  0  0  0  0  0  0  0  0  0
   21.3992   75.3300    0.2726 H   0  0  0  0  0  0  0  0  0  0  0  0
   19.9080   74.2006    0.9105 H   0  0  0  0  0  0  0  0  0  0  0  0
   23.8186   74.7032   -2.0282 H   0  0  0  0  0  0  0  0  0  0  0  0
   24.4722   70.3743   -0.8551 O   0  0  0  0  0  0  0  0  0  0  0  0
   24.5740   70.6687   -3.1139 O   0  0  0  0  0  0  0  0  0  0  0  0
   24.0209   70.8543   -2.0403 C   0  0  0  0  0  0  0  0  0  0  0  0
  1  4  1  0
  1 24  1  0
  1  2  1  6
  1  3  2  0
 25 28  1  0
 25 24  1  0
 25 26  1  6
 25 27  2  0
  6 11  1  0
  6 12  1  0
 29 36  1  0
 29 37  1  0
  9  7  1  6
  7 13  1  0
 10  8  1  6
  8 14  1  0
  4  5  1  0
 36 28  1  6
 33 30  1  1
 30 38  1  0
 34 31  1  6
 31 39  1  0
 35 32  1  6
 32 40  1  0
 41 43  1  0
 15 19  2  0
 42 43  2  0
 16 22  2  0
 12 17  1  1
 17 19  1  0
 17 20  1  0
 18 19  1  0
 18 22  1  0
 18 23  1  0
  9 10  1  0
  9 11  1  0
 10 12  1  0
 11  5  1  1
 33 34  1  0
 33 35  1  0
 34 36  1  0
 35 37  1  0
 37 43  1  1
 20 21  2  0
 21 22  1  0
M  CHG  3   2  -1  26  -1  41  -1
M  END
>  <COMPND>  (7) 
    udp_gluA.pdb 

>  <AUTHOR>  (7) 
    GENERATED BY OPEN BABEL 3.1.1

>  <MASTER>  (7) 
        0    0    0    0    0    0    0    0   56    0   56    0

>  <minimizedAffinity>  (7) 
-7.54507

>  <CNNscore>  (7) 
0.4682361186

>  <CNNaffinity>  (7) 
4.4038724899

>  <CNN_VS>  (7) 
2.0620522499

>  <CNNaffinity_variance>  (7) 
0.1047862396

$$$$
8
     RDKit          3D

 43 45  0  0  0  0  0  0  0  0999 V2000
   21.8254   71.4530   -2.0788 P   0  0  2  0  0  0  0  0  0  0  0  0
   23.3659   71.7608   -2.4675 O   0  0  0  0  0  0  0  0  0  0  0  0
   21.6386   70.4796   -0.9522 O   0  0  0  0  0  0  0  0  0  0  0  0
   21.1451   71.0372   -3.4867 O   0  0  0  0  0  0  0  0  0  0  0  0
   20.4508   69.8058   -3.5646 C   0  0  0  0  0  0  0  0  0  0  0  0
   18.4006   70.7772   -4.3587 O   0  0  0  0  0  0  0  0  0  0  0  0
   17.0147   69.0380   -2.3472 O   0  0  0  0  0  0  0  0  0  0  0  0
   16.6351   67.6730   -4.6772 O   0  0  0  0  0  0  0  0  0  0  0  0
   18.1710   68.7606   -3.1375 C   0  0  1  0  0  0  0  0  0  0  0  0
   17.7735   68.5027   -4.5755 C   0  0  2  0  0  0  0  0  0  0  0  0
   18.9786   70.0459   -3.2558 C   0  0  1  0  0  0  0  0  0  0  0  0
   17.5195   69.9095   -5.0896 C   0  0  2  0  0  0  0  0  0  0  0  0
   16.4828   68.2314   -2.2576 H   0  0  0  0  0  0  0  0  0  0  0  0
   16.8479   66.7891   -4.3376 H   0  0  0  0  0  0  0  0  0  0  0  0
   15.8947   71.3312   -6.9103 O   0  0  0  0  0  0  0  0  0  0  0  0
   18.6748   70.3372  -10.4497 O   0  0  0  0  0  0  0  0  0  0  0  0
   17.7953   70.0383   -6.4925 N   0  0  0  0  0  0  0  0  0  0  0  0
   17.2803   70.8339   -8.6716 N   0  0  0  0  0  0  0  0  0  0  0  0
   16.9147   70.7742   -7.3203 C   0  0  0  0  0  0  0  0  0  0  0  0
   18.9271   69.4416   -7.0346 C   0  0  0  0  0  0  0  0  0  0  0  0
   19.2625   69.5074   -8.3245 C   0  0  0  0  0  0  0  0  0  0  0  0
   18.3952   70.2565   -9.2573 C   0  0  0  0  0  0  0  0  0  0  0  0
   16.6815   71.3390   -9.2679 H   0  0  0  0  0  0  0  0  0  0  0  0
   21.2194   72.9261   -1.8034 O   0  0  0  0  0  0  0  0  0  0  0  0
   20.6115   74.0300   -2.8160 P   0  0  2  0  0  0  0  0  0  0  0  0
   21.0036   75.4337   -2.1116 O   0  0  0  0  0  0  0  0  0  0  0  0
   19.1456   73.8672   -3.0967 O   0  0  0  0  0  0  0  0  0  0  0  0
   21.5558   73.9519   -4.1216 O   0  0  0  0  0  0  0  0  0  0  0  0
   21.9610   75.6626   -5.7086 O   0  0  0  0  0  0  0  0  0  0  0  0
   22.4905   72.2583   -7.9885 O   0  0  0  0  0  0  0  0  0  0  0  0
   20.2887   72.4323   -6.0764 O   0  0  0  0  0  0  0  0  0  0  0  0
   24.7947   73.7888   -7.0947 O   0  0  0  0  0  0  0  0  0  0  0  0
   22.5209   73.0485   -6.8000 C   0  0  2  0  0  0  0  0  0  0  0  0
   21.1077   73.5280   -6.4680 C   0  0  2  0  0  0  0  0  0  0  0  0
   23.4435   74.2435   -7.0502 C   0  0  1  0  0  0  0  0  0  0  0  0
   21.1312   74.5604   -5.3399 C   0  0  1  0  0  0  0  0  0  0  0  0
   23.3162   75.2868   -5.9438 C   0  0  1  0  0  0  0  0  0  0  0  0
   21.9101   71.4927   -7.8533 H   0  0  0  0  0  0  0  0  0  0  0  0
   20.2695   71.7732   -6.7875 H   0  0  0  0  0  0  0  0  0  0  0  0
   24.8893   73.1242   -7.7948 H   0  0  0  0  0  0  0  0  0  0  0  0
   23.3497   77.6235   -5.7434 O   0  0  0  0  0  0  0  0  0  0  0  0
   24.8955   76.6759   -7.1260 O   0  0  0  0  0  0  0  0  0  0  0  0
   23.9552   76.5740   -6.3524 C   0  0  0  0  0  0  0  0  0  0  0  0
  1  4  1  0
  1 24  1  0
  1  2  1  6
  1  3  2  0
 25 28  1  0
 25 24  1  0
 25 26  1  1
 25 27  2  0
  6 11  1  0
  6 12  1  0
 29 36  1  0
 29 37  1  0
  9  7  1  1
  7 13  1  0
 10  8  1  1
  8 14  1  0
  4  5  1  0
 36 28  1  1
 33 30  1  6
 30 38  1  0
 34 31  1  1
 31 39  1  0
 35 32  1  1
 32 40  1  0
 41 43  1  0
 15 19  2  0
 42 43  2  0
 16 22  2  0
 12 17  1  6
 17 19  1  0
 17 20  1  0
 18 19  1  0
 18 22  1  0
 18 23  1  0
  9 10  1  0
  9 11  1  0
 10 12  1  0
 11  5  1  6
 33 34  1  0
 33 35  1  0
 34 36  1  0
 35 37  1  0
 37 43  1  6
 20 21  2  0
 21 22  1  0
M  CHG  3   2  -1  26  -1  41  -1
M  END
>  <COMPND>  (8) 
    udp_gluA.pdb 

>  <AUTHOR>  (8) 
    GENERATED BY OPEN BABEL 3.1.1

>  <MASTER>  (8) 
        0    0    0    0    0    0    0    0   56    0   56    0

>  <minimizedAffinity>  (8) 
-7.68505

>  <CNNscore>  (8) 
0.4640478790

>  <CNNaffinity>  (8) 
4.2403764725

>  <CNN_VS>  (8) 
1.9677376747

>  <CNNaffinity_variance>  (8) 
0.5715652704

$$$$
9
     RDKit          3D

 43 45  0  0  0  0  0  0  0  0999 V2000
   18.2793   76.7224   -4.9850 P   0  0  2  0  0  0  0  0  0  0  0  0
   16.8070   77.1341   -4.4541 O   0  0  0  0  0  0  0  0  0  0  0  0
   19.2133   77.8734   -5.2185 O   0  0  0  0  0  0  0  0  0  0  0  0
   17.9809   75.7875   -6.2715 O   0  0  0  0  0  0  0  0  0  0  0  0
   17.6367   74.4311   -6.0563 C   0  0  0  0  0  0  0  0  0  0  0  0
   18.6161   72.3644   -6.7960 O   0  0  0  0  0  0  0  0  0  0  0  0
   17.4337   72.9809   -9.4818 O   0  0  0  0  0  0  0  0  0  0  0  0
   15.6816   71.1560   -8.4640 O   0  0  0  0  0  0  0  0  0  0  0  0
   16.9046   73.2384   -8.1809 C   0  0  1  0  0  0  0  0  0  0  0  0
   16.4090   71.9530   -7.5528 C   0  0  2  0  0  0  0  0  0  0  0  0
   18.0641   73.6127   -7.2678 C   0  0  1  0  0  0  0  0  0  0  0  0
   17.7060   71.2982   -7.1092 C   0  0  2  0  0  0  0  0  0  0  0  0
   16.7112   72.7396  -10.0831 H   0  0  0  0  0  0  0  0  0  0  0  0
   14.8650   71.6162   -8.7157 H   0  0  0  0  0  0  0  0  0  0  0  0
   19.4686   69.2272   -6.3471 O   0  0  0  0  0  0  0  0  0  0  0  0
   16.9473   68.2020   -2.6275 O   0  0  0  0  0  0  0  0  0  0  0  0
   17.5341   70.4743   -5.9462 N   0  0  0  0  0  0  0  0  0  0  0  0
   18.2106   68.7179   -4.4958 N   0  0  0  0  0  0  0  0  0  0  0  0
   18.4773   69.4611   -5.6532 C   0  0  0  0  0  0  0  0  0  0  0  0
   16.4428   70.6746   -5.1095 C   0  0  0  0  0  0  0  0  0  0  0  0
   16.2021   69.9582   -4.0097 C   0  0  0  0  0  0  0  0  0  0  0  0
   17.1388   68.8794   -3.6328 C   0  0  0  0  0  0  0  0  0  0  0  0
   18.8523   68.0054   -4.2723 H   0  0  0  0  0  0  0  0  0  0  0  0
   18.7823   75.6617   -3.8738 O   0  0  0  0  0  0  0  0  0  0  0  0
   20.2542   75.3751   -3.2697 P   0  0  2  0  0  0  0  0  0  0  0  0
   20.3559   76.4159   -2.0340 O   0  0  0  0  0  0  0  0  0  0  0  0
   21.3653   75.4949   -4.2722 O   0  0  0  0  0  0  0  0  0  0  0  0
   20.1352   73.9254   -2.5722 O   0  0  0  0  0  0  0  0  0  0  0  0
   21.3163   72.3407   -3.8772 O   0  0  0  0  0  0  0  0  0  0  0  0
   19.7713   69.9680   -0.8687 O   0  0  0  0  0  0  0  0  0  0  0  0
   18.1348   72.0517   -2.0994 O   0  0  0  0  0  0  0  0  0  0  0  0
   22.5841   70.7020   -0.8491 O   0  0  0  0  0  0  0  0  0  0  0  0
   20.2959   71.1637   -1.4458 C   0  0  2  0  0  0  0  0  0  0  0  0
   19.3949   71.6151   -2.5956 C   0  0  2  0  0  0  0  0  0  0  0  0
   21.7049   70.8616   -1.9609 C   0  0  1  0  0  0  0  0  0  0  0  0
   20.0423   72.7553   -3.3828 C   0  0  1  0  0  0  0  0  0  0  0  0
   22.2309   71.9922   -2.8403 C   0  0  1  0  0  0  0  0  0  0  0  0
   18.8761   70.1358   -0.5345 H   0  0  0  0  0  0  0  0  0  0  0  0
   17.7184   71.3332   -1.5985 H   0  0  0  0  0  0  0  0  0  0  0  0
   22.2605   69.9854   -0.2812 H   0  0  0  0  0  0  0  0  0  0  0  0
   23.6247   72.3266   -4.6969 O   0  0  0  0  0  0  0  0  0  0  0  0
   24.1789   70.6354   -3.2715 O   0  0  0  0  0  0  0  0  0  0  0  0
   23.4441   71.5562   -3.5957 C   0  0  0  0  0  0  0  0  0  0  0  0
  1  4  1  0
  1 24  1  0
  1  2  1  1
  1  3  2  0
 25 28  1  0
 25 24  1  0
 25 26  1  1
 25 27  2  0
  6 11  1  0
  6 12  1  0
 29 36  1  0
 29 37  1  0
  9  7  1  6
  7 13  1  0
 10  8  1  6
  8 14  1  0
  4  5  1  0
 36 28  1  1
 33 30  1  6
 30 38  1  0
 34 31  1  1
 31 39  1  0
 35 32  1  1
 32 40  1  0
 41 43  1  0
 15 19  2  0
 42 43  2  0
 16 22  2  0
 12 17  1  1
 17 19  1  0
 17 20  1  0
 18 19  1  0
 18 22  1  0
 18 23  1  0
  9 10  1  0
  9 11  1  0
 10 12  1  0
 11  5  1  1
 33 34  1  0
 33 35  1  0
 34 36  1  0
 35 37  1  0
 37 43  1  6
 20 21  2  0
 21 22  1  0
M  CHG  3   2  -1  26  -1  41  -1
M  END
>  <COMPND>  (9) 
    udp_gluA.pdb 

>  <AUTHOR>  (9) 
    GENERATED BY OPEN BABEL 3.1.1

>  <MASTER>  (9) 
        0    0    0    0    0    0    0    0   56    0   56    0

>  <minimizedAffinity>  (9) 
-7.03579

>  <CNNscore>  (9) 
0.4541697204

>  <CNNaffinity>  (9) 
4.1252765656

>  <CNN_VS>  (9) 
1.8735756874

>  <CNNaffinity_variance>  (9) 
0.7645567656

$$$$
10
     RDKit          3D

 43 45  0  0  0  0  0  0  0  0999 V2000
   19.0241   69.7019   -1.8615 P   0  0  2  0  0  0  0  0  0  0  0  0
   18.1579   68.4816   -2.4775 O   0  0  0  0  0  0  0  0  0  0  0  0
   19.9049   69.3326   -0.7041 O   0  0  0  0  0  0  0  0  0  0  0  0
   17.9231   70.8506   -1.5680 O   0  0  0  0  0  0  0  0  0  0  0  0
   16.7416   70.8697   -2.3479 C   0  0  0  0  0  0  0  0  0  0  0  0
   17.5775   72.4920   -3.9123 O   0  0  0  0  0  0  0  0  0  0  0  0
   14.9073   73.8335   -3.6630 O   0  0  0  0  0  0  0  0  0  0  0  0
   14.6773   72.4819   -6.0202 O   0  0  0  0  0  0  0  0  0  0  0  0
   15.2237   72.4413   -3.6512 C   0  0  1  0  0  0  0  0  0  0  0  0
   15.5653   71.9696   -5.0488 C   0  0  2  0  0  0  0  0  0  0  0  0
   16.5496   72.2670   -2.9233 C   0  0  1  0  0  0  0  0  0  0  0  0
   16.9824   72.4896   -5.2197 C   0  0  2  0  0  0  0  0  0  0  0  0
   14.0639   73.9699   -4.1231 H   0  0  0  0  0  0  0  0  0  0  0  0
   13.7892   72.1212   -5.8687 H   0  0  0  0  0  0  0  0  0  0  0  0
   18.3957   73.4350   -7.4747 O   0  0  0  0  0  0  0  0  0  0  0  0
   19.9673   69.2212   -8.4840 O   0  0  0  0  0  0  0  0  0  0  0  0
   17.7689   71.6613   -6.0892 N   0  0  0  0  0  0  0  0  0  0  0  0
   19.1762   71.3352   -7.9758 N   0  0  0  0  0  0  0  0  0  0  0  0
   18.4394   72.2355   -7.1951 C   0  0  0  0  0  0  0  0  0  0  0  0
   17.8718   70.2977   -5.8423 C   0  0  0  0  0  0  0  0  0  0  0  0
   18.5780   69.4523   -6.5954 C   0  0  0  0  0  0  0  0  0  0  0  0
   19.3079   69.9714   -7.7707 C   0  0  0  0  0  0  0  0  0  0  0  0
   19.6501   71.7113   -8.7526 H   0  0  0  0  0  0  0  0  0  0  0  0
   19.8121   70.2748   -3.1513 O   0  0  0  0  0  0  0  0  0  0  0  0
   21.0967   71.2500   -3.2635 P   0  0  2  0  0  0  0  0  0  0  0  0
   20.9153   71.9346   -4.7191 O   0  0  0  0  0  0  0  0  0  0  0  0
   22.4142   70.5580   -3.0655 O   0  0  0  0  0  0  0  0  0  0  0  0
   20.8007   72.4392   -2.2145 O   0  0  0  0  0  0  0  0  0  0  0  0
   22.7061   73.4659   -1.2531 O   0  0  0  0  0  0  0  0  0  0  0  0
   19.6629   74.9686    1.1025 O   0  0  0  0  0  0  0  0  0  0  0  0
   19.6727   72.1562    0.3121 O   0  0  0  0  0  0  0  0  0  0  0  0
   20.9024   76.6441   -0.9242 O   0  0  0  0  0  0  0  0  0  0  0  0
   20.2601   74.4745   -0.0963 C   0  0  2  0  0  0  0  0  0  0  0  0
   20.7655   73.0499    0.1332 C   0  0  2  0  0  0  0  0  0  0  0  0
   21.4233   75.3995   -0.4613 C   0  0  1  0  0  0  0  0  0  0  0  0
   21.6111   72.5724   -1.0482 C   0  0  1  0  0  0  0  0  0  0  0  0
   22.2918   74.7951   -1.5608 C   0  0  1  0  0  0  0  0  0  0  0  0
   18.9210   74.3964    1.3541 H   0  0  0  0  0  0  0  0  0  0  0  0
   19.1317   72.4534    1.0600 H   0  0  0  0  0  0  0  0  0  0  0  0
   20.3475   77.0392   -0.2337 H   0  0  0  0  0  0  0  0  0  0  0  0
   23.9882   75.9906   -0.4678 O   0  0  0  0  0  0  0  0  0  0  0  0
   24.2061   75.6987   -2.7187 O   0  0  0  0  0  0  0  0  0  0  0  0
   23.5866   75.5312   -1.6788 C   0  0  0  0  0  0  0  0  0  0  0  0
  1  4  1  0
  1 24  1  0
  1  2  1  6
  1  3  2  0
 25 28  1  0
 25 24  1  0
 25 26  1  6
 25 27  2  0
  6 11  1  0
  6 12  1  0
 29 36  1  0
 29 37  1  0
  9  7  1  6
  7 13  1  0
 10  8  1  6
  8 14  1  0
  4  5  1  0
 36 28  1  6
 33 30  1  1
 30 38  1  0
 34 31  1  6
 31 39  1  0
 35 32  1  6
 32 40  1  0
 41 43  1  0
 15 19  2  0
 42 43  2  0
 16 22  2  0
 12 17  1  6
 17 19  1  0
 17 20  1  0
 18 19  1  0
 18 22  1  0
 18 23  1  0
  9 10  1  0
  9 11  1  0
 10 12  1  0
 11  5  1  6
 33 34  1  0
 33 35  1  0
 34 36  1  0
 35 37  1  0
 37 43  1  1
 20 21  2  0
 21 22  1  0
M  CHG  3   2  -1  26  -1  41  -1
M  END
>  <COMPND>  (10) 
    udp_gluA.pdb 

>  <AUTHOR>  (10) 
    GENERATED BY OPEN BABEL 3.1.1

>  <MASTER>  (10) 
        0    0    0    0    0    0    0    0   56    0   56    0

>  <minimizedAffinity>  (10) 
-6.90237

>  <CNNscore>  (10) 
0.4515489042

>  <CNNaffinity>  (10) 
4.2262849808

>  <CNN_VS>  (10) 
1.9083743095

>  <CNNaffinity_variance>  (10) 
0.0683801994

$$$$
11
     RDKit          3D

 43 45  0  0  0  0  0  0  0  0999 V2000
   17.7874   70.8979   -2.2054 P   0  0  2  0  0  0  0  0  0  0  0  0
   16.1898   71.1036   -2.3615 O   0  0  0  0  0  0  0  0  0  0  0  0
   18.1964   69.8120   -1.2540 O   0  0  0  0  0  0  0  0  0  0  0  0
   18.3378   72.3795   -1.8592 O   0  0  0  0  0  0  0  0  0  0  0  0
   17.6357   73.1560   -0.9061 C   0  0  0  0  0  0  0  0  0  0  0  0
   19.7751   72.6838    0.0826 O   0  0  0  0  0  0  0  0  0  0  0  0
   19.2191   74.9785    1.9310 O   0  0  0  0  0  0  0  0  0  0  0  0
   20.9160   76.0827    0.1041 O   0  0  0  0  0  0  0  0  0  0  0  0
   18.8824   74.8271    0.5518 C   0  0  1  0  0  0  0  0  0  0  0  0
   20.1156   74.9954   -0.3103 C   0  0  2  0  0  0  0  0  0  0  0  0
   18.5238   73.3667    0.3134 C   0  0  1  0  0  0  0  0  0  0  0  0
   20.8104   73.6563   -0.1316 C   0  0  2  0  0  0  0  0  0  0  0  0
   19.4520   75.9039    2.1077 H   0  0  0  0  0  0  0  0  0  0  0  0
   20.4295   76.9118   -0.0298 H   0  0  0  0  0  0  0  0  0  0  0  0
   22.8444   71.6968   -0.1242 O   0  0  0  0  0  0  0  0  0  0  0  0
   23.6791   72.2843   -4.6189 O   0  0  0  0  0  0  0  0  0  0  0  0
   21.5752   73.2774   -1.2859 N   0  0  0  0  0  0  0  0  0  0  0  0
   23.2589   71.9920   -2.3626 N   0  0  0  0  0  0  0  0  0  0  0  0
   22.5745   72.2818   -1.1749 C   0  0  0  0  0  0  0  0  0  0  0  0
   21.3317   73.8879   -2.5102 C   0  0  0  0  0  0  0  0  0  0  0  0
   21.9921   73.6010   -3.6337 C   0  0  0  0  0  0  0  0  0  0  0  0
   23.0528   72.5726   -3.6036 C   0  0  0  0  0  0  0  0  0  0  0  0
   23.9607   71.3035   -2.3098 H   0  0  0  0  0  0  0  0  0  0  0  0
   18.2753   70.6761   -3.7304 O   0  0  0  0  0  0  0  0  0  0  0  0
   19.5278   69.8516   -4.3348 P   0  0  2  0  0  0  0  0  0  0  0  0
   19.0772   68.3077   -4.1517 O   0  0  0  0  0  0  0  0  0  0  0  0
   20.8485   70.1892   -3.7056 O   0  0  0  0  0  0  0  0  0  0  0  0
   19.4586   70.1101   -5.9256 O   0  0  0  0  0  0  0  0  0  0  0  0
   17.1615   70.2283   -6.4900 O   0  0  0  0  0  0  0  0  0  0  0  0
   18.9615   70.9287  -10.1420 O   0  0  0  0  0  0  0  0  0  0  0  0
   19.9954   68.8633   -8.3533 O   0  0  0  0  0  0  0  0  0  0  0  0
   17.7799   73.1275   -8.6520 O   0  0  0  0  0  0  0  0  0  0  0  0
   18.8413   70.9656   -8.7200 C   0  0  2  0  0  0  0  0  0  0  0  0
   18.7558   69.5392   -8.1764 C   0  0  2  0  0  0  0  0  0  0  0  0
   17.5706   71.7445   -8.3728 C   0  0  1  0  0  0  0  0  0  0  0  0
   18.3971   69.5408   -6.6898 C   0  0  1  0  0  0  0  0  0  0  0  0
   17.2103   71.5938   -6.8977 C   0  0  1  0  0  0  0  0  0  0  0  0
   19.7622   70.4385  -10.3864 H   0  0  0  0  0  0  0  0  0  0  0  0
   20.2294   68.8588   -9.2944 H   0  0  0  0  0  0  0  0  0  0  0  0
   18.0101   73.2372   -9.5879 H   0  0  0  0  0  0  0  0  0  0  0  0
   15.1152   72.1434   -7.7978 O   0  0  0  0  0  0  0  0  0  0  0  0
   15.3660   72.3557   -5.5415 O   0  0  0  0  0  0  0  0  0  0  0  0
   15.8180   72.0707   -6.6403 C   0  0  0  0  0  0  0  0  0  0  0  0
  1  4  1  0
  1 24  1  0
  1  2  1  6
  1  3  2  0
 25 28  1  0
 25 24  1  0
 25 26  1  6
 25 27  2  0
  6 11  1  0
  6 12  1  0
 29 36  1  0
 29 37  1  0
  9  7  1  1
  7 13  1  0
 10  8  1  1
  8 14  1  0
  4  5  1  0
 36 28  1  1
 33 30  1  6
 30 38  1  0
 34 31  1  1
 31 39  1  0
 35 32  1  1
 32 40  1  0
 41 43  1  0
 15 19  2  0
 42 43  2  0
 16 22  2  0
 12 17  1  6
 17 19  1  0
 17 20  1  0
 18 19  1  0
 18 22  1  0
 18 23  1  0
  9 10  1  0
  9 11  1  0
 10 12  1  0
 11  5  1  6
 33 34  1  0
 33 35  1  0
 34 36  1  0
 35 37  1  0
 37 43  1  6
 20 21  2  0
 21 22  1  0
M  CHG  3   2  -1  26  -1  41  -1
M  END
>  <COMPND>  (11) 
    udp_gluA.pdb 

>  <AUTHOR>  (11) 
    GENERATED BY OPEN BABEL 3.1.1

>  <MASTER>  (11) 
        0    0    0    0    0    0    0    0   56    0   56    0

>  <minimizedAffinity>  (11) 
-8.14624

>  <CNNscore>  (11) 
0.4507863820

>  <CNNaffinity>  (11) 
4.0596833229

>  <CNN_VS>  (11) 
1.8300499916

>  <CNNaffinity_variance>  (11) 
0.4711623192

$$$$
12
     RDKit          3D

 43 45  0  0  0  0  0  0  0  0999 V2000
   19.4358   69.5357   -2.3325 P   0  0  2  0  0  0  0  0  0  0  0  0
   19.1189   68.1537   -3.1125 O   0  0  0  0  0  0  0  0  0  0  0  0
   20.1165   69.3724   -1.0052 O   0  0  0  0  0  0  0  0  0  0  0  0
   18.0101   70.3001   -2.3016 O   0  0  0  0  0  0  0  0  0  0  0  0
   17.3127   70.4798   -3.5206 C   0  0  0  0  0  0  0  0  0  0  0  0
   17.8218   72.4085   -4.8617 O   0  0  0  0  0  0  0  0  0  0  0  0
   15.3423   73.6360   -3.7055 O   0  0  0  0  0  0  0  0  0  0  0  0
   14.5089   72.8179   -6.1698 O   0  0  0  0  0  0  0  0  0  0  0  0
   15.5957   72.2771   -4.0630 C   0  0  1  0  0  0  0  0  0  0  0  0
   15.5790   72.1193   -5.5687 C   0  0  2  0  0  0  0  0  0  0  0  0
   17.0475   71.9657   -3.7260 C   0  0  1  0  0  0  0  0  0  0  0  0
   16.9360   72.6795   -5.9595 C   0  0  2  0  0  0  0  0  0  0  0  0
   14.4204   73.8583   -3.9116 H   0  0  0  0  0  0  0  0  0  0  0  0
   13.6675   72.4233   -5.8900 H   0  0  0  0  0  0  0  0  0  0  0  0
   16.7088   73.7706   -8.5546 O   0  0  0  0  0  0  0  0  0  0  0  0
   18.9896   70.2359  -10.4382 O   0  0  0  0  0  0  0  0  0  0  0  0
   17.4613   72.0653   -7.1459 N   0  0  0  0  0  0  0  0  0  0  0  0
   17.8441   72.0085   -9.4904 N   0  0  0  0  0  0  0  0  0  0  0  0
   17.2929   72.6962   -8.4012 C   0  0  0  0  0  0  0  0  0  0  0  0
   18.1356   70.8533   -7.0592 C   0  0  0  0  0  0  0  0  0  0  0  0
   18.6556   70.2100   -8.1063 C   0  0  0  0  0  0  0  0  0  0  0  0
   18.5226   70.8011   -9.4540 C   0  0  0  0  0  0  0  0  0  0  0  0
   17.7377   72.4272  -10.3751 H   0  0  0  0  0  0  0  0  0  0  0  0
   20.2784   70.3821   -3.4217 O   0  0  0  0  0  0  0  0  0  0  0  0
   21.6007   71.2984   -3.2619 P   0  0  2  0  0  0  0  0  0  0  0  0
   21.6574   72.1129   -4.6597 O   0  0  0  0  0  0  0  0  0  0  0  0
   22.8493   70.5276   -2.9443 O   0  0  0  0  0  0  0  0  0  0  0  0
   21.1999   72.4070   -2.1606 O   0  0  0  0  0  0  0  0  0  0  0  0
   19.4589   73.9994   -2.3662 O   0  0  0  0  0  0  0  0  0  0  0  0
   22.0236   75.8924    0.2617 O   0  0  0  0  0  0  0  0  0  0  0  0
   23.0726   74.4609   -2.0588 O   0  0  0  0  0  0  0  0  0  0  0  0
   19.5705   74.6761    1.2382 O   0  0  0  0  0  0  0  0  0  0  0  0
   21.3768   74.7781   -0.3529 C   0  0  2  0  0  0  0  0  0  0  0  0
   21.6977   74.7607   -1.8476 C   0  0  2  0  0  0  0  0  0  0  0  0
   19.8695   74.9263   -0.1338 C   0  0  1  0  0  0  0  0  0  0  0  0
   20.8439   73.7236   -2.5785 C   0  0  1  0  0  0  0  0  0  0  0  0
   19.0823   73.9405   -0.9923 C   0  0  1  0  0  0  0  0  0  0  0  0
   22.9828   75.8199    0.1354 H   0  0  0  0  0  0  0  0  0  0  0  0
   23.6202   75.1149   -1.5975 H   0  0  0  0  0  0  0  0  0  0  0  0
   20.0654   75.2969    1.7954 H   0  0  0  0  0  0  0  0  0  0  0  0
   16.9845   73.7851    0.0454 O   0  0  0  0  0  0  0  0  0  0  0  0
   17.1001   74.9804   -1.8928 O   0  0  0  0  0  0  0  0  0  0  0  0
   17.6337   74.3051   -1.0255 C   0  0  0  0  0  0  0  0  0  0  0  0
  1  4  1  0
  1 24  1  0
  1  2  1  6
  1  3  2  0
 25 28  1  0
 25 24  1  0
 25 26  1  6
 25 27  2  0
  6 11  1  0
  6 12  1  0
 29 36  1  0
 29 37  1  0
  9  7  1  6
  7 13  1  0
 10  8  1  6
  8 14  1  0
  4  5  1  0
 36 28  1  1
 33 30  1  1
 30 38  1  0
 34 31  1  1
 31 39  1  0
 35 32  1  1
 32 40  1  0
 41 43  1  0
 15 19  2  0
 42 43  2  0
 16 22  2  0
 12 17  1  6
 17 19  1  0
 17 20  1  0
 18 19  1  0
 18 22  1  0
 18 23  1  0
  9 10  1  0
  9 11  1  0
 10 12  1  0
 11  5  1  6
 33 34  1  0
 33 35  1  0
 34 36  1  0
 35 37  1  0
 37 43  1  6
 20 21  2  0
 21 22  1  0
M  CHG  3   2  -1  26  -1  41  -1
M  END
>  <COMPND>  (12) 
    udp_gluA.pdb 

>  <AUTHOR>  (12) 
    GENERATED BY OPEN BABEL 3.1.1

>  <MASTER>  (12) 
        0    0    0    0    0    0    0    0   56    0   56    0

>  <minimizedAffinity>  (12) 
-6.65482

>  <CNNscore>  (12) 
0.4507151246

>  <CNNaffinity>  (12) 
4.2499551773

>  <CNN_VS>  (12) 
1.9155191183

>  <CNNaffinity_variance>  (12) 
0.0354488492

$$$$
13
     RDKit          3D

 43 45  0  0  0  0  0  0  0  0999 V2000
   17.3078   74.0422   -3.0020 P   0  0  2  0  0  0  0  0  0  0  0  0
   15.7133   74.2441   -3.1908 O   0  0  0  0  0  0  0  0  0  0  0  0
   18.0042   75.1503   -2.2679 O   0  0  0  0  0  0  0  0  0  0  0  0
   17.8423   73.7476   -4.5005 O   0  0  0  0  0  0  0  0  0  0  0  0
   17.1278   74.2956   -5.5931 C   0  0  0  0  0  0  0  0  0  0  0  0
   18.3235   72.4467   -6.5573 O   0  0  0  0  0  0  0  0  0  0  0  0
   17.1105   73.2678   -9.1738 O   0  0  0  0  0  0  0  0  0  0  0  0
   15.5468   71.1625   -8.4267 O   0  0  0  0  0  0  0  0  0  0  0  0
   16.5446   73.3071   -7.8635 C   0  0  1  0  0  0  0  0  0  0  0  0
   16.1785   71.9101   -7.4087 C   0  0  2  0  0  0  0  0  0  0  0  0
   17.6499   73.6812   -6.8855 C   0  0  1  0  0  0  0  0  0  0  0  0
   17.5319   71.3406   -7.0190 C   0  0  2  0  0  0  0  0  0  0  0  0
   16.4231   73.0307   -9.8163 H   0  0  0  0  0  0  0  0  0  0  0  0
   14.6895   71.5650   -8.6389 H   0  0  0  0  0  0  0  0  0  0  0  0
   19.3828   69.2468   -6.6104 O   0  0  0  0  0  0  0  0  0  0  0  0
   17.0585   67.6591   -2.9606 O   0  0  0  0  0  0  0  0  0  0  0  0
   17.4346   70.3659   -5.9695 N   0  0  0  0  0  0  0  0  0  0  0  0
   18.2229   68.4574   -4.7936 N   0  0  0  0  0  0  0  0  0  0  0  0
   18.4173   69.3546   -5.8520 C   0  0  0  0  0  0  0  0  0  0  0  0
   16.3766   70.4183   -5.0702 C   0  0  0  0  0  0  0  0  0  0  0  0
   16.2047   69.5561   -4.0663 C   0  0  0  0  0  0  0  0  0  0  0  0
   17.1865   68.4686   -3.8741 C   0  0  0  0  0  0  0  0  0  0  0  0
   18.8931   67.7433   -4.6928 H   0  0  0  0  0  0  0  0  0  0  0  0
   17.4084   72.5949   -2.2892 O   0  0  0  0  0  0  0  0  0  0  0  0
   18.3947   72.0487   -1.1305 P   0  0  2  0  0  0  0  0  0  0  0  0
   18.3126   70.4412   -1.3024 O   0  0  0  0  0  0  0  0  0  0  0  0
   18.0584   72.5413    0.2472 O   0  0  0  0  0  0  0  0  0  0  0  0
   19.8762   72.4372   -1.6373 O   0  0  0  0  0  0  0  0  0  0  0  0
   21.9797   71.3968   -1.9564 O   0  0  0  0  0  0  0  0  0  0  0  0
   23.0419   74.8365    0.0705 O   0  0  0  0  0  0  0  0  0  0  0  0
   20.6845   73.3109    0.8765 O   0  0  0  0  0  0  0  0  0  0  0  0
   23.5165   74.6227   -2.7895 O   0  0  0  0  0  0  0  0  0  0  0  0
   22.2627   74.0353   -0.8177 C   0  0  2  0  0  0  0  0  0  0  0  0
   21.6632   72.8563   -0.0509 C   0  0  2  0  0  0  0  0  0  0  0  0
   23.1834   73.5327   -1.9320 C   0  0  1  0  0  0  0  0  0  0  0  0
   21.0155   71.8541   -1.0074 C   0  0  1  0  0  0  0  0  0  0  0  0
   22.5089   72.4459   -2.7641 C   0  0  1  0  0  0  0  0  0  0  0  0
   22.4776   75.1671    0.7872 H   0  0  0  0  0  0  0  0  0  0  0  0
   21.0885   73.9474    1.4864 H   0  0  0  0  0  0  0  0  0  0  0  0
   23.9464   75.3215   -2.2721 H   0  0  0  0  0  0  0  0  0  0  0  0
   23.6943   72.4045   -4.7877 O   0  0  0  0  0  0  0  0  0  0  0  0
   24.0817   70.7028   -3.3203 O   0  0  0  0  0  0  0  0  0  0  0  0
   23.5070   71.7381   -3.6216 C   0  0  0  0  0  0  0  0  0  0  0  0
  1  4  1  0
  1 24  1  0
  1  2  1  6
  1  3  2  0
 25 28  1  0
 25 24  1  0
 25 26  1  1
 25 27  2  0
  6 11  1  0
  6 12  1  0
 29 36  1  0
 29 37  1  0
  9  7  1  6
  7 13  1  0
 10  8  1  6
  8 14  1  0
  4  5  1  0
 36 28  1  6
 33 30  1  1
 30 38  1  0
 34 31  1  1
 31 39  1  0
 35 32  1  6
 32 40  1  0
 41 43  1  0
 15 19  2  0
 42 43  2  0
 16 22  2  0
 12 17  1  1
 17 19  1  0
 17 20  1  0
 18 19  1  0
 18 22  1  0
 18 23  1  0
  9 10  1  0
  9 11  1  0
 10 12  1  0
 11  5  1  1
 33 34  1  0
 33 35  1  0
 34 36  1  0
 35 37  1  0
 37 43  1  6
 20 21  2  0
 21 22  1  0
M  CHG  3   2  -1  26  -1  41  -1
M  END
>  <COMPND>  (13) 
    udp_gluA.pdb 

>  <AUTHOR>  (13) 
    GENERATED BY OPEN BABEL 3.1.1

>  <MASTER>  (13) 
        0    0    0    0    0    0    0    0   56    0   56    0

>  <minimizedAffinity>  (13) 
-7.37350

>  <CNNscore>  (13) 
0.4286289513

>  <CNNaffinity>  (13) 
4.0930027962

>  <CNN_VS>  (13) 
1.7543795109

>  <CNNaffinity_variance>  (13) 
0.5851196051

$$$$
14
     RDKit          3D

 43 45  0  0  0  0  0  0  0  0999 V2000
   15.9446   73.0594   -3.1392 P   0  0  2  0  0  0  0  0  0  0  0  0
   14.7597   72.2260   -3.8604 O   0  0  0  0  0  0  0  0  0  0  0  0
   15.5292   73.8205   -1.9145 O   0  0  0  0  0  0  0  0  0  0  0  0
   16.5801   73.9450   -4.3350 O   0  0  0  0  0  0  0  0  0  0  0  0
   16.1020   73.7445   -5.6524 C   0  0  0  0  0  0  0  0  0  0  0  0
   18.1179   72.4665   -5.9361 O   0  0  0  0  0  0  0  0  0  0  0  0
   17.9138   73.1400   -8.8509 O   0  0  0  0  0  0  0  0  0  0  0  0
   16.9553   70.5887   -8.7604 O   0  0  0  0  0  0  0  0  0  0  0  0
   16.8739   72.8659   -7.9118 C   0  0  1  0  0  0  0  0  0  0  0  0
   16.8252   71.3849   -7.6012 C   0  0  2  0  0  0  0  0  0  0  0  0
   17.2834   73.4594   -6.5708 C   0  0  1  0  0  0  0  0  0  0  0  0
   17.9962   71.2241   -6.6468 C   0  0  2  0  0  0  0  0  0  0  0  0
   17.6748   72.7703   -9.7156 H   0  0  0  0  0  0  0  0  0  0  0  0
   16.1855   70.7263   -9.3352 H   0  0  0  0  0  0  0  0  0  0  0  0
   20.0696   69.9068   -5.2533 O   0  0  0  0  0  0  0  0  0  0  0  0
   17.0924   67.1686   -3.0436 O   0  0  0  0  0  0  0  0  0  0  0  0
   17.7911   70.1635   -5.7015 N   0  0  0  0  0  0  0  0  0  0  0  0
   18.5849   68.5436   -4.1548 N   0  0  0  0  0  0  0  0  0  0  0  0
   18.9010   69.5687   -5.0561 C   0  0  0  0  0  0  0  0  0  0  0  0
   16.5030   69.7241   -5.4207 C   0  0  0  0  0  0  0  0  0  0  0  0
   16.2175   68.7460   -4.5590 C   0  0  0  0  0  0  0  0  0  0  0  0
   17.3202   68.0715   -3.8430 C   0  0  0  0  0  0  0  0  0  0  0  0
   19.3414   68.1129   -3.6948 H   0  0  0  0  0  0  0  0  0  0  0  0
   17.0751   71.9332   -2.8809 O   0  0  0  0  0  0  0  0  0  0  0  0
   18.3943   71.9482   -1.9465 P   0  0  2  0  0  0  0  0  0  0  0  0
   18.5476   70.4004   -1.4982 O   0  0  0  0  0  0  0  0  0  0  0  0
   18.3283   72.9194   -0.8035 O   0  0  0  0  0  0  0  0  0  0  0  0
   19.6169   72.1992   -2.9685 O   0  0  0  0  0  0  0  0  0  0  0  0
   21.4107   72.9286   -1.6049 O   0  0  0  0  0  0  0  0  0  0  0  0
   23.2148   72.6970   -5.3143 O   0  0  0  0  0  0  0  0  0  0  0  0
   20.5295   73.8145   -5.0408 O   0  0  0  0  0  0  0  0  0  0  0  0
   23.7187   70.6466   -3.3161 O   0  0  0  0  0  0  0  0  0  0  0  0
   22.2934   72.3285   -4.2881 C   0  0  2  0  0  0  0  0  0  0  0  0
   21.3976   73.5211   -3.9522 C   0  0  2  0  0  0  0  0  0  0  0  0
   23.0998   71.9055   -3.0581 C   0  0  1  0  0  0  0  0  0  0  0  0
   20.5566   73.2399   -2.7063 C   0  0  1  0  0  0  0  0  0  0  0  0
   22.2079   71.7676   -1.8277 C   0  0  1  0  0  0  0  0  0  0  0  0
   22.7250   72.9697   -6.1062 H   0  0  0  0  0  0  0  0  0  0  0  0
   21.0565   73.9937   -5.8349 H   0  0  0  0  0  0  0  0  0  0  0  0
   24.2891   70.7207   -4.0971 H   0  0  0  0  0  0  0  0  0  0  0  0
   23.9736   70.7141   -0.6989 O   0  0  0  0  0  0  0  0  0  0  0  0
   22.8820   72.3838    0.4056 O   0  0  0  0  0  0  0  0  0  0  0  0
   23.0304   71.6815   -0.5833 C   0  0  0  0  0  0  0  0  0  0  0  0
  1  4  1  0
  1 24  1  0
  1  2  1  6
  1  3  2  0
 25 28  1  0
 25 24  1  0
 25 26  1  1
 25 27  2  0
  6 11  1  0
  6 12  1  0
 29 36  1  0
 29 37  1  0
  9  7  1  6
  7 13  1  0
 10  8  1  6
  8 14  1  0
  4  5  1  0
 36 28  1  6
 33 30  1  6
 30 38  1  0
 34 31  1  6
 31 39  1  0
 35 32  1  6
 32 40  1  0
 41 43  1  0
 15 19  2  0
 42 43  2  0
 16 22  2  0
 12 17  1  1
 17 19  1  0
 17 20  1  0
 18 19  1  0
 18 22  1  0
 18 23  1  0
  9 10  1  0
  9 11  1  0
 10 12  1  0
 11  5  1  1
 33 34  1  0
 33 35  1  0
 34 36  1  0
 35 37  1  0
 37 43  1  1
 20 21  2  0
 21 22  1  0
M  CHG  3   2  -1  26  -1  41  -1
M  END
>  <COMPND>  (14) 
    udp_gluA.pdb 

>  <AUTHOR>  (14) 
    GENERATED BY OPEN BABEL 3.1.1

>  <MASTER>  (14) 
        0    0    0    0    0    0    0    0   56    0   56    0

>  <minimizedAffinity>  (14) 
-7.09687

>  <CNNscore>  (14) 
0.4205839038

>  <CNNaffinity>  (14) 
4.0014457703

>  <CNN_VS>  (14) 
1.6829437017

>  <CNNaffinity_variance>  (14) 
0.7553144693

$$$$
15
     RDKit          3D

 43 45  0  0  0  0  0  0  0  0999 V2000
   21.0550   71.1165   -1.5196 P   0  0  2  0  0  0  0  0  0  0  0  0
   22.4532   70.6888   -0.8262 O   0  0  0  0  0  0  0  0  0  0  0  0
   20.1806   72.0066   -0.6859 O   0  0  0  0  0  0  0  0  0  0  0  0
   20.3978   69.7082   -1.9698 O   0  0  0  0  0  0  0  0  0  0  0  0
   19.7849   69.6246   -3.2433 C   0  0  0  0  0  0  0  0  0  0  0  0
   17.8275   70.6238   -4.2169 O   0  0  0  0  0  0  0  0  0  0  0  0
   16.2413   68.7996   -2.4426 O   0  0  0  0  0  0  0  0  0  0  0  0
   16.1281   67.5318   -4.8542 O   0  0  0  0  0  0  0  0  0  0  0  0
   17.4790   68.5577   -3.1121 C   0  0  1  0  0  0  0  0  0  0  0  0
   17.2430   68.3589   -4.5944 C   0  0  2  0  0  0  0  0  0  0  0  0
   18.2861   69.8485   -3.0883 C   0  0  1  0  0  0  0  0  0  0  0  0
   17.0375   69.7854   -5.0750 C   0  0  2  0  0  0  0  0  0  0  0  0
   15.7081   67.9888   -2.4450 H   0  0  0  0  0  0  0  0  0  0  0  0
   16.3084   66.6349   -4.5300 H   0  0  0  0  0  0  0  0  0  0  0  0
   15.6167   71.2855   -7.0006 O   0  0  0  0  0  0  0  0  0  0  0  0
   18.7694   70.4374  -10.2541 O   0  0  0  0  0  0  0  0  0  0  0  0
   17.4643   69.9729   -6.4328 N   0  0  0  0  0  0  0  0  0  0  0  0
   17.1878   70.8608   -8.6195 N   0  0  0  0  0  0  0  0  0  0  0  0
   16.6771   70.7446   -7.3199 C   0  0  0  0  0  0  0  0  0  0  0  0
   18.6503   69.3978   -6.8728 C   0  0  0  0  0  0  0  0  0  0  0  0
   19.1242   69.5175   -8.1145 C   0  0  0  0  0  0  0  0  0  0  0  0
   18.3617   70.3068   -9.1039 C   0  0  0  0  0  0  0  0  0  0  0  0
   16.6561   71.3917   -9.2557 H   0  0  0  0  0  0  0  0  0  0  0  0
   21.5287   71.7618   -2.9238 O   0  0  0  0  0  0  0  0  0  0  0  0
   22.7980   72.6942   -3.2889 P   0  0  2  0  0  0  0  0  0  0  0  0
   23.8207   71.6632   -4.0041 O   0  0  0  0  0  0  0  0  0  0  0  0
   23.3800   73.4289   -2.1161 O   0  0  0  0  0  0  0  0  0  0  0  0
   22.2771   73.6453   -4.4832 O   0  0  0  0  0  0  0  0  0  0  0  0
   20.7526   73.2917   -6.2608 O   0  0  0  0  0  0  0  0  0  0  0  0
   23.5811   75.7148   -8.0487 O   0  0  0  0  0  0  0  0  0  0  0  0
   24.4001   73.5409   -6.2772 O   0  0  0  0  0  0  0  0  0  0  0  0
   21.0075   76.8129   -7.2600 O   0  0  0  0  0  0  0  0  0  0  0  0
   22.7865   75.2135   -6.9738 C   0  0  2  0  0  0  0  0  0  0  0  0
   23.0788   73.7264   -6.7716 C   0  0  2  0  0  0  0  0  0  0  0  0
   21.3145   75.4221   -7.3365 C   0  0  1  0  0  0  0  0  0  0  0  0
   22.0870   73.1027   -5.7887 C   0  0  1  0  0  0  0  0  0  0  0  0
   20.3933   74.6662   -6.3833 C   0  0  1  0  0  0  0  0  0  0  0  0
   24.5208   75.5929   -7.8406 H   0  0  0  0  0  0  0  0  0  0  0  0
   25.0346   73.9346   -6.8959 H   0  0  0  0  0  0  0  0  0  0  0  0
   21.5871   77.3055   -7.8620 H   0  0  0  0  0  0  0  0  0  0  0  0
   18.6727   73.3267   -7.2476 O   0  0  0  0  0  0  0  0  0  0  0  0
   18.2599   75.5619   -7.0670 O   0  0  0  0  0  0  0  0  0  0  0  0
   19.0035   74.6024   -6.9279 C   0  0  0  0  0  0  0  0  0  0  0  0
  1  4  1  0
  1 24  1  0
  1  2  1  1
  1  3  2  0
 25 28  1  0
 25 24  1  0
 25 26  1  6
 25 27  2  0
  6 11  1  0
  6 12  1  0
 29 36  1  0
 29 37  1  0
  9  7  1  1
  7 13  1  0
 10  8  1  1
  8 14  1  0
  4  5  1  0
 36 28  1  1
 33 30  1  6
 30 38  1  0
 34 31  1  1
 31 39  1  0
 35 32  1  1
 32 40  1  0
 41 43  1  0
 15 19  2  0
 42 43  2  0
 16 22  2  0
 12 17  1  6
 17 19  1  0
 17 20  1  0
 18 19  1  0
 18 22  1  0
 18 23  1  0
  9 10  1  0
  9 11  1  0
 10 12  1  0
 11  5  1  6
 33 34  1  0
 33 35  1  0
 34 36  1  0
 35 37  1  0
 37 43  1  6
 20 21  2  0
 21 22  1  0
M  CHG  3   2  -1  26  -1  41  -1
M  END
>  <COMPND>  (15) 
    udp_gluA.pdb 

>  <AUTHOR>  (15) 
    GENERATED BY OPEN BABEL 3.1.1

>  <MASTER>  (15) 
        0    0    0    0    0    0    0    0   56    0   56    0

>  <minimizedAffinity>  (15) 
-7.64021

>  <CNNscore>  (15) 
0.4103321731

>  <CNNaffinity>  (15) 
4.2754297256

>  <CNN_VS>  (15) 
1.7543463707

>  <CNNaffinity_variance>  (15) 
0.6320249438

$$$$
16
     RDKit          3D

 43 45  0  0  0  0  0  0  0  0999 V2000
   20.0203   71.1774   -1.2279 P   0  0  2  0  0  0  0  0  0  0  0  0
   19.5963   71.9910    0.1051 O   0  0  0  0  0  0  0  0  0  0  0  0
   19.8027   71.9150   -2.5165 O   0  0  0  0  0  0  0  0  0  0  0  0
   19.2416   69.7662   -1.0860 O   0  0  0  0  0  0  0  0  0  0  0  0
   18.7380   69.1511   -2.2576 C   0  0  0  0  0  0  0  0  0  0  0  0
   17.0507   70.3381   -3.4913 O   0  0  0  0  0  0  0  0  0  0  0  0
   15.0760   68.4677   -2.2290 O   0  0  0  0  0  0  0  0  0  0  0  0
   15.3857   67.4120   -4.7242 O   0  0  0  0  0  0  0  0  0  0  0  0
   16.4099   68.2112   -2.6688 C   0  0  1  0  0  0  0  0  0  0  0  0
   16.4606   68.1495   -4.1807 C   0  0  2  0  0  0  0  0  0  0  0  0
   17.2481   69.4472   -2.3721 C   0  0  1  0  0  0  0  0  0  0  0  0
   16.4108   69.6202   -4.5582 C   0  0  2  0  0  0  0  0  0  0  0  0
   14.5213   67.6918   -2.4082 H   0  0  0  0  0  0  0  0  0  0  0  0
   15.4628   66.4826   -4.4555 H   0  0  0  0  0  0  0  0  0  0  0  0
   15.5794   71.5316   -6.4639 O   0  0  0  0  0  0  0  0  0  0  0  0
   19.1408   70.5881   -9.2334 O   0  0  0  0  0  0  0  0  0  0  0  0
   17.1021   69.8944   -5.7861 N   0  0  0  0  0  0  0  0  0  0  0  0
   17.3534   71.0592   -7.8420 N   0  0  0  0  0  0  0  0  0  0  0  0
   16.6005   70.8745   -6.6749 C   0  0  0  0  0  0  0  0  0  0  0  0
   18.2634   69.1982   -6.0987 C   0  0  0  0  0  0  0  0  0  0  0  0
   18.9703   69.3853   -7.2149 C   0  0  0  0  0  0  0  0  0  0  0  0
   18.5139   70.3907   -8.1970 C   0  0  0  0  0  0  0  0  0  0  0  0
   17.0227   71.7349   -8.4771 H   0  0  0  0  0  0  0  0  0  0  0  0
   21.5580   70.7750   -0.9338 O   0  0  0  0  0  0  0  0  0  0  0  0
   22.9320   71.2399   -1.6477 P   0  0  2  0  0  0  0  0  0  0  0  0
   22.8985   70.4533   -3.0620 O   0  0  0  0  0  0  0  0  0  0  0  0
   24.1660   70.9898   -0.8300 O   0  0  0  0  0  0  0  0  0  0  0  0
   22.6884   72.7866   -2.0361 O   0  0  0  0  0  0  0  0  0  0  0  0
   23.7502   74.8959   -2.2175 O   0  0  0  0  0  0  0  0  0  0  0  0
   20.7248   75.7065    0.4766 O   0  0  0  0  0  0  0  0  0  0  0  0
   22.2612   73.2298    0.6763 O   0  0  0  0  0  0  0  0  0  0  0  0
   20.4987   76.5946   -2.2823 O   0  0  0  0  0  0  0  0  0  0  0  0
   21.3412   75.0533   -0.6331 C   0  0  2  0  0  0  0  0  0  0  0  0
   22.6018   74.3268   -0.1636 C   0  0  2  0  0  0  0  0  0  0  0  0
   21.6970   76.1196   -1.6715 C   0  0  1  0  0  0  0  0  0  0  0  0
   23.4109   73.8101   -1.3541 C   0  0  1  0  0  0  0  0  0  0  0  0
   22.6083   75.5567   -2.7583 C   0  0  1  0  0  0  0  0  0  0  0  0
   20.4899   75.0485    1.1497 H   0  0  0  0  0  0  0  0  0  0  0  0
   21.7474   73.5504    1.4337 H   0  0  0  0  0  0  0  0  0  0  0  0
   19.9097   76.9554   -1.6012 H   0  0  0  0  0  0  0  0  0  0  0  0
   24.5578   76.6826   -3.4165 O   0  0  0  0  0  0  0  0  0  0  0  0
   22.5833   77.4325   -4.2755 O   0  0  0  0  0  0  0  0  0  0  0  0
   23.2105   76.6580   -3.5686 C   0  0  0  0  0  0  0  0  0  0  0  0
  1  4  1  0
  1 24  1  0
  1  2  1  1
  1  3  2  0
 25 28  1  0
 25 24  1  0
 25 26  1  6
 25 27  2  0
  6 11  1  0
  6 12  1  0
 29 36  1  0
 29 37  1  0
  9  7  1  6
  7 13  1  0
 10  8  1  6
  8 14  1  0
  4  5  1  0
 36 28  1  6
 33 30  1  1
 30 38  1  0
 34 31  1  1
 31 39  1  0
 35 32  1  6
 32 40  1  0
 41 43  1  0
 15 19  2  0
 42 43  2  0
 16 22  2  0
 12 17  1  6
 17 19  1  0
 17 20  1  0
 18 19  1  0
 18 22  1  0
 18 23  1  0
  9 10  1  0
  9 11  1  0
 10 12  1  0
 11  5  1  6
 33 34  1  0
 33 35  1  0
 34 36  1  0
 35 37  1  0
 37 43  1  6
 20 21  2  0
 21 22  1  0
M  CHG  3   2  -1  26  -1  41  -1
M  END
>  <COMPND>  (16) 
    udp_gluA.pdb 

>  <AUTHOR>  (16) 
    GENERATED BY OPEN BABEL 3.1.1

>  <MASTER>  (16) 
        0    0    0    0    0    0    0    0   56    0   56    0

>  <minimizedAffinity>  (16) 
-7.26140

>  <CNNscore>  (16) 
0.4079751670

>  <CNNaffinity>  (16) 
4.5005879402

>  <CNN_VS>  (16) 
1.8361281157

>  <CNNaffinity_variance>  (16) 
0.0414712802

$$$$
17
     RDKit          3D

 43 45  0  0  0  0  0  0  0  0999 V2000
   22.4136   73.1049   -6.6347 P   0  0  2  0  0  0  0  0  0  0  0  0
   21.8025   74.5913   -6.4449 O   0  0  0  0  0  0  0  0  0  0  0  0
   23.2423   72.9138   -7.8711 O   0  0  0  0  0  0  0  0  0  0  0  0
   21.1263   72.1348   -6.4948 O   0  0  0  0  0  0  0  0  0  0  0  0
   19.9321   72.4952   -7.1646 C   0  0  0  0  0  0  0  0  0  0  0  0
   19.6137   70.1323   -6.8594 O   0  0  0  0  0  0  0  0  0  0  0  0
   17.2888   70.3918   -8.7354 O   0  0  0  0  0  0  0  0  0  0  0  0
   16.0784   70.3191   -6.2929 O   0  0  0  0  0  0  0  0  0  0  0  0
   17.7584   71.3081   -7.7461 C   0  0  1  0  0  0  0  0  0  0  0  0
   17.3997   70.8131   -6.3610 C   0  0  2  0  0  0  0  0  0  0  0  0
   19.2792   71.2384   -7.7255 C   0  0  1  0  0  0  0  0  0  0  0  0
   18.4411   69.7306   -6.1334 C   0  0  2  0  0  0  0  0  0  0  0  0
   16.3193   70.4186   -8.7671 H   0  0  0  0  0  0  0  0  0  0  0  0
   15.4533   71.0460   -6.4440 H   0  0  0  0  0  0  0  0  0  0  0  0
   16.7755   68.5050   -4.2099 O   0  0  0  0  0  0  0  0  0  0  0  0
   19.8429   69.2038   -0.8414 O   0  0  0  0  0  0  0  0  0  0  0  0
   18.7798   69.5789   -4.7466 N   0  0  0  0  0  0  0  0  0  0  0  0
   18.3044   68.8551   -2.5338 N   0  0  0  0  0  0  0  0  0  0  0  0
   17.8720   68.9483   -3.8633 C   0  0  0  0  0  0  0  0  0  0  0  0
   19.9989   70.0500   -4.2748 C   0  0  0  0  0  0  0  0  0  0  0  0
   20.3972   69.9538   -3.0048 C   0  0  0  0  0  0  0  0  0  0  0  0
   19.5071   69.3091   -2.0172 C   0  0  0  0  0  0  0  0  0  0  0  0
   17.6884   68.4217   -1.8997 H   0  0  0  0  0  0  0  0  0  0  0  0
   23.2066   72.8587   -5.2479 O   0  0  0  0  0  0  0  0  0  0  0  0
   22.7775   73.1420   -3.7151 P   0  0  2  0  0  0  0  0  0  0  0  0
   23.2014   74.6883   -3.4922 O   0  0  0  0  0  0  0  0  0  0  0  0
   23.3749   72.1877   -2.7220 O   0  0  0  0  0  0  0  0  0  0  0  0
   21.1646   73.1613   -3.7385 O   0  0  0  0  0  0  0  0  0  0  0  0
   19.2436   74.5366   -3.9045 O   0  0  0  0  0  0  0  0  0  0  0  0
   18.7701   72.8807   -0.1492 O   0  0  0  0  0  0  0  0  0  0  0  0
   21.3952   73.8011   -1.0416 O   0  0  0  0  0  0  0  0  0  0  0  0
   17.1676   71.9245   -2.3782 O   0  0  0  0  0  0  0  0  0  0  0  0
   19.1859   72.9171   -1.5144 C   0  0  2  0  0  0  0  0  0  0  0  0
   20.1723   74.0673   -1.7185 C   0  0  2  0  0  0  0  0  0  0  0  0
   17.9422   73.1222   -2.3822 C   0  0  1  0  0  0  0  0  0  0  0  0
   20.4622   74.2822   -3.2046 C   0  0  1  0  0  0  0  0  0  0  0  0
   18.3173   73.4556   -3.8233 C   0  0  1  0  0  0  0  0  0  0  0  0
   19.5441   72.7513    0.4214 H   0  0  0  0  0  0  0  0  0  0  0  0
   21.2187   73.6635   -0.0980 H   0  0  0  0  0  0  0  0  0  0  0  0
   16.9225   71.7010   -1.4667 H   0  0  0  0  0  0  0  0  0  0  0  0
   17.5235   74.6057   -5.7071 O   0  0  0  0  0  0  0  0  0  0  0  0
   15.9696   73.8425   -4.2233 O   0  0  0  0  0  0  0  0  0  0  0  0
   17.1329   73.9717   -4.5738 C   0  0  0  0  0  0  0  0  0  0  0  0
  1  4  1  0
  1 24  1  0
  1  2  1  1
  1  3  2  0
 25 28  1  0
 25 24  1  0
 25 26  1  1
 25 27  2  0
  6 11  1  0
  6 12  1  0
 29 36  1  0
 29 37  1  0
  9  7  1  6
  7 13  1  0
 10  8  1  6
  8 14  1  0
  4  5  1  0
 36 28  1  6
 33 30  1  1
 30 38  1  0
 34 31  1  1
 31 39  1  0
 35 32  1  6
 32 40  1  0
 41 43  1  0
 15 19  2  0
 42 43  2  0
 16 22  2  0
 12 17  1  1
 17 19  1  0
 17 20  1  0
 18 19  1  0
 18 22  1  0
 18 23  1  0
  9 10  1  0
  9 11  1  0
 10 12  1  0
 11  5  1  1
 33 34  1  0
 33 35  1  0
 34 36  1  0
 35 37  1  0
 37 43  1  6
 20 21  2  0
 21 22  1  0
M  CHG  3   2  -1  26  -1  41  -1
M  END
>  <COMPND>  (17) 
    udp_gluA.pdb 

>  <AUTHOR>  (17) 
    GENERATED BY OPEN BABEL 3.1.1

>  <MASTER>  (17) 
        0    0    0    0    0    0    0    0   56    0   56    0

>  <minimizedAffinity>  (17) 
-6.42449

>  <CNNscore>  (17) 
0.4039168060

>  <CNNaffinity>  (17) 
3.8820309639

>  <CNN_VS>  (17) 
1.5680176020

>  <CNNaffinity_variance>  (17) 
0.6563987732

$$$$
18
     RDKit          3D

 43 45  0  0  0  0  0  0  0  0999 V2000
   20.5951   70.7940   -1.5987 P   0  0  2  0  0  0  0  0  0  0  0  0
   20.2693   69.4238   -0.8015 O   0  0  0  0  0  0  0  0  0  0  0  0
   20.5862   72.0351   -0.7553 O   0  0  0  0  0  0  0  0  0  0  0  0
   19.5549   70.7791   -2.8379 O   0  0  0  0  0  0  0  0  0  0  0  0
   20.0568   70.9923   -4.1445 C   0  0  0  0  0  0  0  0  0  0  0  0
   18.6838   69.0260   -4.3063 O   0  0  0  0  0  0  0  0  0  0  0  0
   19.0934   69.2106   -7.2710 O   0  0  0  0  0  0  0  0  0  0  0  0
   16.5987   70.2633   -6.9475 O   0  0  0  0  0  0  0  0  0  0  0  0
   18.9458   70.2582   -6.3123 C   0  0  1  0  0  0  0  0  0  0  0  0
   17.5025   70.3614   -5.8667 C   0  0  2  0  0  0  0  0  0  0  0  0
   19.6445   69.8242   -5.0310 C   0  0  1  0  0  0  0  0  0  0  0  0
   17.3867   69.1953   -4.8999 C   0  0  2  0  0  0  0  0  0  0  0  0
   18.6548   69.4649   -8.0985 H   0  0  0  0  0  0  0  0  0  0  0  0
   16.7115   71.0286   -7.5337 H   0  0  0  0  0  0  0  0  0  0  0  0
   16.2490   67.1825   -3.2780 O   0  0  0  0  0  0  0  0  0  0  0  0
   13.7103   70.2418   -0.9456 O   0  0  0  0  0  0  0  0  0  0  0  0
   16.4260   69.4380   -3.8612 N   0  0  0  0  0  0  0  0  0  0  0  0
   14.9849   68.7080   -2.1186 N   0  0  0  0  0  0  0  0  0  0  0  0
   15.9164   68.3565   -3.1044 C   0  0  0  0  0  0  0  0  0  0  0  0
   15.9995   70.7344   -3.5999 C   0  0  0  0  0  0  0  0  0  0  0  0
   15.1111   71.0539   -2.6568 C   0  0  0  0  0  0  0  0  0  0  0  0
   14.5295   69.9825   -1.8220 C   0  0  0  0  0  0  0  0  0  0  0  0
   14.6145   67.9717   -1.5801 H   0  0  0  0  0  0  0  0  0  0  0  0
   22.0111   70.4726   -2.3089 O   0  0  0  0  0  0  0  0  0  0  0  0
   23.3115   71.4017   -2.5524 P   0  0  2  0  0  0  0  0  0  0  0  0
   24.4278   70.3482   -3.0665 O   0  0  0  0  0  0  0  0  0  0  0  0
   23.7260   72.2068   -1.3548 O   0  0  0  0  0  0  0  0  0  0  0  0
   22.9490   72.2796   -3.8564 O   0  0  0  0  0  0  0  0  0  0  0  0
   24.0748   73.8637   -5.2100 O   0  0  0  0  0  0  0  0  0  0  0  0
   20.3345   75.5793   -4.8422 O   0  0  0  0  0  0  0  0  0  0  0  0
   21.6288   74.3404   -2.5348 O   0  0  0  0  0  0  0  0  0  0  0  0
   21.0999   74.2650   -7.3197 O   0  0  0  0  0  0  0  0  0  0  0  0
   21.2740   74.5079   -4.9290 C   0  0  2  0  0  0  0  0  0  0  0  0
   22.2723   74.6080   -3.7753 C   0  0  2  0  0  0  0  0  0  0  0  0
   21.9991   74.6223   -6.2718 C   0  0  1  0  0  0  0  0  0  0  0  0
   23.4248   73.6202   -3.9619 C   0  0  1  0  0  0  0  0  0  0  0  0
   23.2104   73.6961   -6.3315 C   0  0  1  0  0  0  0  0  0  0  0  0
   19.8615   75.5271   -3.9967 H   0  0  0  0  0  0  0  0  0  0  0  0
   20.8962   74.9634   -2.4100 H   0  0  0  0  0  0  0  0  0  0  0  0
   20.3243   74.8470   -7.2928 H   0  0  0  0  0  0  0  0  0  0  0  0
   25.3596   74.2746   -7.0716 O   0  0  0  0  0  0  0  0  0  0  0  0
   23.7229   74.1169   -8.6513 O   0  0  0  0  0  0  0  0  0  0  0  0
   24.0893   74.0463   -7.4878 C   0  0  0  0  0  0  0  0  0  0  0  0
  1  4  1  0
  1 24  1  0
  1  2  1  1
  1  3  2  0
 25 28  1  0
 25 24  1  0
 25 26  1  6
 25 27  2  0
  6 11  1  0
  6 12  1  0
 29 36  1  0
 29 37  1  0
  9  7  1  6
  7 13  1  0
 10  8  1  6
  8 14  1  0
  4  5  1  0
 36 28  1  6
 33 30  1  1
 30 38  1  0
 34 31  1  1
 31 39  1  0
 35 32  1  6
 32 40  1  0
 41 43  1  0
 15 19  2  0
 42 43  2  0
 16 22  2  0
 12 17  1  1
 17 19  1  0
 17 20  1  0
 18 19  1  0
 18 22  1  0
 18 23  1  0
  9 10  1  0
  9 11  1  0
 10 12  1  0
 11  5  1  1
 33 34  1  0
 33 35  1  0
 34 36  1  0
 35 37  1  0
 37 43  1  6
 20 21  2  0
 21 22  1  0
M  CHG  3   2  -1  26  -1  41  -1
M  END
>  <COMPND>  (18) 
    udp_gluA.pdb 

>  <AUTHOR>  (18) 
    GENERATED BY OPEN BABEL 3.1.1

>  <MASTER>  (18) 
        0    0    0    0    0    0    0    0   56    0   56    0

>  <minimizedAffinity>  (18) 
-7.41605

>  <CNNscore>  (18) 
0.3796928525

>  <CNNaffinity>  (18) 
4.0737791061

>  <CNN_VS>  (18) 
1.5467847586

>  <CNNaffinity_variance>  (18) 
0.3143222034

$$$$
19
     RDKit          3D

 43 45  0  0  0  0  0  0  0  0999 V2000
   18.2516   71.2995   -2.1489 P   0  0  2  0  0  0  0  0  0  0  0  0
   16.7888   71.9901   -2.1947 O   0  0  0  0  0  0  0  0  0  0  0  0
   18.3836   70.1587   -1.1829 O   0  0  0  0  0  0  0  0  0  0  0  0
   19.2605   72.5418   -1.9112 O   0  0  0  0  0  0  0  0  0  0  0  0
   19.6808   72.8283   -0.5899 C   0  0  0  0  0  0  0  0  0  0  0  0
   21.6264   71.8934   -1.6474 O   0  0  0  0  0  0  0  0  0  0  0  0
   23.0377   72.3617    0.9565 O   0  0  0  0  0  0  0  0  0  0  0  0
   23.8866   74.4581   -0.5669 O   0  0  0  0  0  0  0  0  0  0  0  0
   22.0356   73.1524    0.3168 C   0  0  1  0  0  0  0  0  0  0  0  0
   22.6268   73.8930   -0.8639 C   0  0  2  0  0  0  0  0  0  0  0  0
   21.0525   72.2070   -0.3600 C   0  0  1  0  0  0  0  0  0  0  0  0
   22.7099   72.7980   -1.9136 C   0  0  2  0  0  0  0  0  0  0  0  0
   23.6777   72.9439    1.3960 H   0  0  0  0  0  0  0  0  0  0  0  0
   23.7803   75.1496    0.1058 H   0  0  0  0  0  0  0  0  0  0  0  0
   23.9103   71.6380   -4.1918 O   0  0  0  0  0  0  0  0  0  0  0  0
   22.1255   74.8386   -6.9873 O   0  0  0  0  0  0  0  0  0  0  0  0
   22.5754   73.3076   -3.2489 N   0  0  0  0  0  0  0  0  0  0  0  0
   23.0210   73.2338   -5.5818 N   0  0  0  0  0  0  0  0  0  0  0  0
   23.2196   72.6502   -4.3236 C   0  0  0  0  0  0  0  0  0  0  0  0
   21.8116   74.4445   -3.4838 C   0  0  0  0  0  0  0  0  0  0  0  0
   21.6315   74.9890   -4.6887 C   0  0  0  0  0  0  0  0  0  0  0  0
   22.2711   74.3638   -5.8649 C   0  0  0  0  0  0  0  0  0  0  0  0
   23.4613   72.7949   -6.3452 H   0  0  0  0  0  0  0  0  0  0  0  0
   18.5161   70.9071   -3.6945 O   0  0  0  0  0  0  0  0  0  0  0  0
   19.4684   69.7801   -4.3554 P   0  0  2  0  0  0  0  0  0  0  0  0
   18.6170   68.4169   -4.1624 O   0  0  0  0  0  0  0  0  0  0  0  0
   20.8542   69.7304   -3.7802 O   0  0  0  0  0  0  0  0  0  0  0  0
   19.4116   70.0746   -5.9405 O   0  0  0  0  0  0  0  0  0  0  0  0
   17.1230   70.2328   -6.5288 O   0  0  0  0  0  0  0  0  0  0  0  0
   18.9739   70.9565  -10.1507 O   0  0  0  0  0  0  0  0  0  0  0  0
   19.9586   68.8531   -8.3787 O   0  0  0  0  0  0  0  0  0  0  0  0
   17.8062   73.1516   -8.6444 O   0  0  0  0  0  0  0  0  0  0  0  0
   18.8381   70.9761   -8.7298 C   0  0  2  0  0  0  0  0  0  0  0  0
   18.7266   69.5439   -8.2066 C   0  0  2  0  0  0  0  0  0  0  0  0
   17.5745   71.7681   -8.3863 C   0  0  1  0  0  0  0  0  0  0  0  0
   18.3511   69.5306   -6.7241 C   0  0  1  0  0  0  0  0  0  0  0  0
   17.1954   71.6027   -6.9175 C   0  0  1  0  0  0  0  0  0  0  0  0
   19.7705   70.4584  -10.3928 H   0  0  0  0  0  0  0  0  0  0  0  0
   20.2031   68.8578   -9.3171 H   0  0  0  0  0  0  0  0  0  0  0  0
   18.0485   73.2706   -9.5760 H   0  0  0  0  0  0  0  0  0  0  0  0
   15.5343   72.1092   -5.3409 O   0  0  0  0  0  0  0  0  0  0  0  0
   15.0203   72.4432   -7.5371 O   0  0  0  0  0  0  0  0  0  0  0  0
   15.8070   72.0957   -6.6692 C   0  0  0  0  0  0  0  0  0  0  0  0
  1  4  1  0
  1 24  1  0
  1  2  1  6
  1  3  2  0
 25 28  1  0
 25 24  1  0
 25 26  1  6
 25 27  2  0
  6 11  1  0
  6 12  1  0
 29 36  1  0
 29 37  1  0
  9  7  1  6
  7 13  1  0
 10  8  1  1
  8 14  1  0
  4  5  1  0
 36 28  1  1
 33 30  1  6
 30 38  1  0
 34 31  1  1
 31 39  1  0
 35 32  1  1
 32 40  1  0
 41 43  1  0
 15 19  2  0
 42 43  2  0
 16 22  2  0
 12 17  1  6
 17 19  1  0
 17 20  1  0
 18 19  1  0
 18 22  1  0
 18 23  1  0
  9 10  1  0
  9 11  1  0
 10 12  1  0
 11  5  1  6
 33 34  1  0
 33 35  1  0
 34 36  1  0
 35 37  1  0
 37 43  1  6
 20 21  2  0
 21 22  1  0
M  CHG  3   2  -1  26  -1  41  -1
M  END
>  <COMPND>  (19) 
    udp_gluA.pdb 

>  <AUTHOR>  (19) 
    GENERATED BY OPEN BABEL 3.1.1

>  <MASTER>  (19) 
        0    0    0    0    0    0    0    0   56    0   56    0

>  <minimizedAffinity>  (19) 
-7.93834

>  <CNNscore>  (19) 
0.3567275703

>  <CNNaffinity>  (19) 
4.1229295731

>  <CNN_VS>  (19) 
1.4707626104

>  <CNNaffinity_variance>  (19) 
0.3409058452

$$$$
20
     RDKit          3D

 43 45  0  0  0  0  0  0  0  0999 V2000
   23.1756   71.3390   -2.5899 P   0  0  2  0  0  0  0  0  0  0  0  0
   24.2494   70.6529   -3.5874 O   0  0  0  0  0  0  0  0  0  0  0  0
   23.7006   71.6683   -1.2233 O   0  0  0  0  0  0  0  0  0  0  0  0
   21.9084   70.3339   -2.6323 O   0  0  0  0  0  0  0  0  0  0  0  0
   21.0460   70.3800   -3.7542 C   0  0  0  0  0  0  0  0  0  0  0  0
   18.8378   71.1264   -4.3409 O   0  0  0  0  0  0  0  0  0  0  0  0
   17.8694   69.4838   -2.0267 O   0  0  0  0  0  0  0  0  0  0  0  0
   17.3086   67.8883   -4.1658 O   0  0  0  0  0  0  0  0  0  0  0  0
   18.9339   69.2184   -2.9405 C   0  0  1  0  0  0  0  0  0  0  0  0
   18.3781   68.8028   -4.2861 C   0  0  2  0  0  0  0  0  0  0  0  0
   19.6107   70.5418   -3.2703 C   0  0  1  0  0  0  0  0  0  0  0  0
   17.9451   70.1351   -4.8736 C   0  0  2  0  0  0  0  0  0  0  0  0
   17.4218   68.6529   -1.8011 H   0  0  0  0  0  0  0  0  0  0  0  0
   17.6355   67.0565   -3.7875 H   0  0  0  0  0  0  0  0  0  0  0  0
   16.0219   71.3254   -6.5652 O   0  0  0  0  0  0  0  0  0  0  0  0
   18.3631   70.1500  -10.3575 O   0  0  0  0  0  0  0  0  0  0  0  0
   18.0272   70.1547   -6.3067 N   0  0  0  0  0  0  0  0  0  0  0  0
   17.1893   70.7379   -8.4524 N   0  0  0  0  0  0  0  0  0  0  0  0
   17.0077   70.7789   -7.0637 C   0  0  0  0  0  0  0  0  0  0  0  0
   19.1085   69.5622   -6.9476 C   0  0  0  0  0  0  0  0  0  0  0  0
   19.2678   69.5312   -8.2721 C   0  0  0  0  0  0  0  0  0  0  0  0
   18.2470   70.1601   -9.1357 C   0  0  0  0  0  0  0  0  0  0  0  0
   16.4914   71.1643   -9.0006 H   0  0  0  0  0  0  0  0  0  0  0  0
   22.6565   72.6141   -3.4370 O   0  0  0  0  0  0  0  0  0  0  0  0
   22.4748   74.1647   -3.0172 P   0  0  2  0  0  0  0  0  0  0  0  0
   21.8508   74.8382   -4.3503 O   0  0  0  0  0  0  0  0  0  0  0  0
   23.7319   74.8203   -2.5235 O   0  0  0  0  0  0  0  0  0  0  0  0
   21.2600   74.1616   -1.9557 O   0  0  0  0  0  0  0  0  0  0  0  0
   21.4546   75.5262   -0.0298 O   0  0  0  0  0  0  0  0  0  0  0  0
   18.3271   73.0375    1.0158 O   0  0  0  0  0  0  0  0  0  0  0  0
   20.6787   71.9677   -0.3480 O   0  0  0  0  0  0  0  0  0  0  0  0
   17.8039   75.7866    0.2286 O   0  0  0  0  0  0  0  0  0  0  0  0
   19.1512   73.7918    0.1270 C   0  0  2  0  0  0  0  0  0  0  0  0
   20.5890   73.2771    0.2015 C   0  0  2  0  0  0  0  0  0  0  0  0
   19.0885   75.2597    0.5550 C   0  0  1  0  0  0  0  0  0  0  0  0
   21.5412   74.2022   -0.5578 C   0  0  1  0  0  0  0  0  0  0  0  0
   20.1521   76.0928   -0.1545 C   0  0  1  0  0  0  0  0  0  0  0  0
   18.3514   72.1011    0.7633 H   0  0  0  0  0  0  0  0  0  0  0  0
   20.0769   71.3755    0.1289 H   0  0  0  0  0  0  0  0  0  0  0  0
   17.1178   75.2651    0.6738 H   0  0  0  0  0  0  0  0  0  0  0  0
   19.5264   77.5090    1.6074 O   0  0  0  0  0  0  0  0  0  0  0  0
   21.0261   78.3275    0.0974 O   0  0  0  0  0  0  0  0  0  0  0  0
   20.3030   77.4280    0.4987 C   0  0  0  0  0  0  0  0  0  0  0  0
  1  4  1  0
  1 24  1  0
  1  2  1  6
  1  3  2  0
 25 28  1  0
 25 24  1  0
 25 26  1  6
 25 27  2  0
  6 11  1  0
  6 12  1  0
 29 36  1  0
 29 37  1  0
  9  7  1  1
  7 13  1  0
 10  8  1  1
  8 14  1  0
  4  5  1  0
 36 28  1  6
 33 30  1  1
 30 38  1  0
 34 31  1  6
 31 39  1  0
 35 32  1  6
 32 40  1  0
 41 43  1  0
 15 19  2  0
 42 43  2  0
 16 22  2  0
 12 17  1  6
 17 19  1  0
 17 20  1  0
 18 19  1  0
 18 22  1  0
 18 23  1  0
  9 10  1  0
  9 11  1  0
 10 12  1  0
 11  5  1  6
 33 34  1  0
 33 35  1  0
 34 36  1  0
 35 37  1  0
 37 43  1  1
 20 21  2  0
 21 22  1  0
M  CHG  3   2  -1  26  -1  41  -1
M  END
>  <COMPND>  (20) 
    udp_gluA.pdb 

>  <AUTHOR>  (20) 
    GENERATED BY OPEN BABEL 3.1.1

>  <MASTER>  (20) 
        0    0    0    0    0    0    0    0   56    0   56    0

>  <minimizedAffinity>  (20) 
-7.14835

>  <CNNscore>  (20) 
0.3498362303

>  <CNNaffinity>  (20) 
4.2101306915

>  <CNN_VS>  (20) 
1.4728562832

>  <CNNaffinity_variance>  (20) 
0.0981928408

$$$$
21
     RDKit          3D

 43 45  0  0  0  0  0  0  0  0999 V2000
   21.4134   71.3222   -1.9900 P   0  0  2  0  0  0  0  0  0  0  0  0
   22.9628   71.0742   -1.5938 O   0  0  0  0  0  0  0  0  0  0  0  0
   20.6389   72.1665   -1.0210 O   0  0  0  0  0  0  0  0  0  0  0  0
   20.8341   69.8328   -2.2434 O   0  0  0  0  0  0  0  0  0  0  0  0
   20.1107   69.5823   -3.4344 C   0  0  0  0  0  0  0  0  0  0  0  0
   18.1661   70.6904   -4.3110 O   0  0  0  0  0  0  0  0  0  0  0  0
   16.5749   68.9913   -2.4208 O   0  0  0  0  0  0  0  0  0  0  0  0
   16.2446   67.7036   -4.8017 O   0  0  0  0  0  0  0  0  0  0  0  0
   17.7545   68.6640   -3.1556 C   0  0  1  0  0  0  0  0  0  0  0  0
   17.4216   68.4623   -4.6187 C   0  0  2  0  0  0  0  0  0  0  0  0
   18.6402   69.9018   -3.1981 C   0  0  1  0  0  0  0  0  0  0  0  0
   17.2776   69.8927   -5.1095 C   0  0  2  0  0  0  0  0  0  0  0  0
   15.9932   68.2156   -2.3802 H   0  0  0  0  0  0  0  0  0  0  0  0
   16.3873   66.8013   -4.4741 H   0  0  0  0  0  0  0  0  0  0  0  0
   15.7594   71.3280   -7.0100 O   0  0  0  0  0  0  0  0  0  0  0  0
   18.7495   70.3776  -10.3864 O   0  0  0  0  0  0  0  0  0  0  0  0
   17.6362   70.0365   -6.4921 N   0  0  0  0  0  0  0  0  0  0  0  0
   17.2496   70.8524   -8.6900 N   0  0  0  0  0  0  0  0  0  0  0  0
   16.8041   70.7781   -7.3637 C   0  0  0  0  0  0  0  0  0  0  0  0
   18.8005   69.4485   -6.9714 C   0  0  0  0  0  0  0  0  0  0  0  0
   19.2121   69.5282   -8.2382 C   0  0  0  0  0  0  0  0  0  0  0  0
   18.3995   70.2842   -9.2138 C   0  0  0  0  0  0  0  0  0  0  0  0
   16.6857   71.3618   -9.3161 H   0  0  0  0  0  0  0  0  0  0  0  0
   21.5140   71.9319   -3.4837 O   0  0  0  0  0  0  0  0  0  0  0  0
   22.5965   72.9292   -4.1523 P   0  0  2  0  0  0  0  0  0  0  0  0
   21.7139   73.7759   -5.2127 O   0  0  0  0  0  0  0  0  0  0  0  0
   23.7852   72.2352   -4.7519 O   0  0  0  0  0  0  0  0  0  0  0  0
   22.9553   73.9849   -2.9865 O   0  0  0  0  0  0  0  0  0  0  0  0
   21.4586   75.6246   -2.1617 O   0  0  0  0  0  0  0  0  0  0  0  0
   25.1236   77.2792   -1.2141 O   0  0  0  0  0  0  0  0  0  0  0  0
   24.7066   75.9865   -3.8005 O   0  0  0  0  0  0  0  0  0  0  0  0
   23.4966   76.0522    0.8592 O   0  0  0  0  0  0  0  0  0  0  0  0
   24.1902   76.2233   -1.4418 C   0  0  2  0  0  0  0  0  0  0  0  0
   23.6703   76.3007   -2.8775 C   0  0  2  0  0  0  0  0  0  0  0  0
   23.0377   76.3886   -0.4487 C   0  0  1  0  0  0  0  0  0  0  0  0
   22.5042   75.3342   -3.0899 C   0  0  1  0  0  0  0  0  0  0  0  0
   21.8633   75.4805   -0.8021 C   0  0  1  0  0  0  0  0  0  0  0  0
   25.8651   77.1948   -1.8340 H   0  0  0  0  0  0  0  0  0  0  0  0
   25.4499   76.5958   -3.6711 H   0  0  0  0  0  0  0  0  0  0  0  0
   24.2443   76.6229    1.0962 H   0  0  0  0  0  0  0  0  0  0  0  0
   20.4175   77.2108   -0.1560 O   0  0  0  0  0  0  0  0  0  0  0  0
   19.9278   75.1128    0.5908 O   0  0  0  0  0  0  0  0  0  0  0  0
   20.6388   75.8776   -0.0436 C   0  0  0  0  0  0  0  0  0  0  0  0
  1  4  1  0
  1 24  1  0
  1  2  1  1
  1  3  2  0
 25 28  1  0
 25 24  1  0
 25 26  1  6
 25 27  2  0
  6 11  1  0
  6 12  1  0
 29 36  1  0
 29 37  1  0
  9  7  1  1
  7 13  1  0
 10  8  1  1
  8 14  1  0
  4  5  1  0
 36 28  1  1
 33 30  1  1
 30 38  1  0
 34 31  1  6
 31 39  1  0
 35 32  1  1
 32 40  1  0
 41 43  1  0
 15 19  2  0
 42 43  2  0
 16 22  2  0
 12 17  1  6
 17 19  1  0
 17 20  1  0
 18 19  1  0
 18 22  1  0
 18 23  1  0
  9 10  1  0
  9 11  1  0
 10 12  1  0
 11  5  1  6
 33 34  1  0
 33 35  1  0
 34 36  1  0
 35 37  1  0
 37 43  1  1
 20 21  2  0
 21 22  1  0
M  CHG  3   2  -1  26  -1  41  -1
M  END
>  <COMPND>  (21) 
    udp_gluA.pdb 

>  <AUTHOR>  (21) 
    GENERATED BY OPEN BABEL 3.1.1

>  <MASTER>  (21) 
        0    0    0    0    0    0    0    0   56    0   56    0

>  <minimizedAffinity>  (21) 
-7.16955

>  <CNNscore>  (21) 
0.6761223674

>  <CNNaffinity>  (21) 
4.6222949028

>  <CNN_VS>  (21) 
3.1252369881

>  <CNNaffinity_variance>  (21) 
0.0062853745

$$$$
22
     RDKit          3D

 43 45  0  0  0  0  0  0  0  0999 V2000
   20.5167   71.4994   -2.8538 P   0  0  2  0  0  0  0  0  0  0  0  0
   20.9887   70.6607   -1.5527 O   0  0  0  0  0  0  0  0  0  0  0  0
   19.9740   72.8678   -2.5628 O   0  0  0  0  0  0  0  0  0  0  0  0
   19.5089   70.4923   -3.6206 O   0  0  0  0  0  0  0  0  0  0  0  0
   18.8748   69.4710   -2.8726 C   0  0  0  0  0  0  0  0  0  0  0  0
   17.0617   70.5194   -4.0521 O   0  0  0  0  0  0  0  0  0  0  0  0
   15.2586   68.6219   -2.5892 O   0  0  0  0  0  0  0  0  0  0  0  0
   15.4714   67.4647   -5.0492 O   0  0  0  0  0  0  0  0  0  0  0  0
   16.5751   68.4066   -3.0981 C   0  0  1  0  0  0  0  0  0  0  0  0
   16.5392   68.2758   -4.6060 C   0  0  2  0  0  0  0  0  0  0  0  0
   17.3681   69.6925   -2.9086 C   0  0  1  0  0  0  0  0  0  0  0  0
   16.3955   69.7231   -5.0448 C   0  0  2  0  0  0  0  0  0  0  0  0
   14.7328   67.8138   -2.6993 H   0  0  0  0  0  0  0  0  0  0  0  0
   15.6094   66.5536   -4.7447 H   0  0  0  0  0  0  0  0  0  0  0  0
   15.2829   71.3861   -7.0381 O   0  0  0  0  0  0  0  0  0  0  0  0
   18.7978   70.5993   -9.9140 O   0  0  0  0  0  0  0  0  0  0  0  0
   16.9988   69.9705   -6.3238 N   0  0  0  0  0  0  0  0  0  0  0  0
   17.0341   70.9918   -8.4690 N   0  0  0  0  0  0  0  0  0  0  0  0
   16.3574   70.8223   -7.2539 C   0  0  0  0  0  0  0  0  0  0  0  0
   18.2122   69.3744   -6.6452 C   0  0  0  0  0  0  0  0  0  0  0  0
   18.8451   69.5455   -7.8074 C   0  0  0  0  0  0  0  0  0  0  0  0
   18.2419   70.4198   -8.8347 C   0  0  0  0  0  0  0  0  0  0  0  0
   16.6060   71.5789   -9.1333 H   0  0  0  0  0  0  0  0  0  0  0  0
   21.8319   71.4824   -3.7933 O   0  0  0  0  0  0  0  0  0  0  0  0
   23.3377   72.0040   -3.5209 P   0  0  2  0  0  0  0  0  0  0  0  0
   24.1858   70.6317   -3.3864 O   0  0  0  0  0  0  0  0  0  0  0  0
   23.4660   72.9280   -2.3446 O   0  0  0  0  0  0  0  0  0  0  0  0
   23.8113   72.6393   -4.9261 O   0  0  0  0  0  0  0  0  0  0  0  0
   23.1364   74.9033   -4.7591 O   0  0  0  0  0  0  0  0  0  0  0  0
   25.2840   74.9243   -8.2883 O   0  0  0  0  0  0  0  0  0  0  0  0
   23.4521   72.7308   -7.6826 O   0  0  0  0  0  0  0  0  0  0  0  0
   26.4466   76.0345   -5.8661 O   0  0  0  0  0  0  0  0  0  0  0  0
   24.9529   74.4976   -6.9669 C   0  0  2  0  0  0  0  0  0  0  0  0
   23.5264   73.9477   -6.9491 C   0  0  2  0  0  0  0  0  0  0  0  0
   25.0688   75.7069   -6.0363 C   0  0  1  0  0  0  0  0  0  0  0  0
   23.0553   73.6951   -5.5162 C   0  0  1  0  0  0  0  0  0  0  0  0
   24.4638   75.4155   -4.6661 C   0  0  1  0  0  0  0  0  0  0  0  0
   25.2172   74.1722   -8.8975 H   0  0  0  0  0  0  0  0  0  0  0  0
   23.7499   72.8837   -8.5928 H   0  0  0  0  0  0  0  0  0  0  0  0
   26.8436   76.2221   -6.7310 H   0  0  0  0  0  0  0  0  0  0  0  0
   23.0217   77.1541   -4.0345 O   0  0  0  0  0  0  0  0  0  0  0  0
   25.1454   77.2117   -3.2064 O   0  0  0  0  0  0  0  0  0  0  0  0
   24.2826   76.6775   -3.8870 C   0  0  0  0  0  0  0  0  0  0  0  0
  1  4  1  0
  1 24  1  0
  1  2  1  1
  1  3  2  0
 25 28  1  0
 25 24  1  0
 25 26  1  1
 25 27  2  0
  6 11  1  0
  6 12  1  0
 29 36  1  0
 29 37  1  0
  9  7  1  6
  7 13  1  0
 10  8  1  1
  8 14  1  0
  4  5  1  0
 36 28  1  1
 33 30  1  6
 30 38  1  0
 34 31  1  6
 31 39  1  0
 35 32  1  1
 32 40  1  0
 41 43  1  0
 15 19  2  0
 42 43  2  0
 16 22  2  0
 12 17  1  6
 17 19  1  0
 17 20  1  0
 18 19  1  0
 18 22  1  0
 18 23  1  0
  9 10  1  0
  9 11  1  0
 10 12  1  0
 11  5  1  6
 33 34  1  0
 33 35  1  0
 34 36  1  0
 35 37  1  0
 37 43  1  1
 20 21  2  0
 21 22  1  0
M  CHG  3   2  -1  26  -1  41  -1
M  END
>  <COMPND>  (22) 
    udp_gluA.pdb 

>  <AUTHOR>  (22) 
    GENERATED BY OPEN BABEL 3.1.1

>  <MASTER>  (22) 
        0    0    0    0    0    0    0    0   56    0   56    0

>  <minimizedAffinity>  (22) 
-7.52934

>  <CNNscore>  (22) 
0.6750164032

>  <CNNaffinity>  (22) 
4.6100029945

>  <CNN_VS>  (22) 
3.1118276119

>  <CNNaffinity_variance>  (22) 
0.2028487921

$$$$
23
     RDKit          3D

 43 45  0  0  0  0  0  0  0  0999 V2000
   20.4911   70.5455   -1.6150 P   0  0  2  0  0  0  0  0  0  0  0  0
   20.1987   69.3012   -0.6224 O   0  0  0  0  0  0  0  0  0  0  0  0
   19.6338   71.7553   -1.3839 O   0  0  0  0  0  0  0  0  0  0  0  0
   20.4018   69.8930   -3.0928 O   0  0  0  0  0  0  0  0  0  0  0  0
   19.5057   68.8174   -3.3040 C   0  0  0  0  0  0  0  0  0  0  0  0
   17.8021   70.2735   -4.1730 O   0  0  0  0  0  0  0  0  0  0  0  0
   15.8554   68.6398   -2.5816 O   0  0  0  0  0  0  0  0  0  0  0  0
   15.5366   67.6556   -5.1047 O   0  0  0  0  0  0  0  0  0  0  0  0
   17.0324   68.2219   -3.2733 C   0  0  1  0  0  0  0  0  0  0  0  0
   16.7881   68.2163   -4.7675 C   0  0  2  0  0  0  0  0  0  0  0  0
   18.0783   69.3185   -3.1256 C   0  0  1  0  0  0  0  0  0  0  0  0
   16.8773   69.6944   -5.1072 C   0  0  2  0  0  0  0  0  0  0  0  0
   15.1725   67.9550   -2.6619 H   0  0  0  0  0  0  0  0  0  0  0  0
   15.5301   66.7141   -4.8692 H   0  0  0  0  0  0  0  0  0  0  0  0
   15.5538   71.2872   -7.0275 O   0  0  0  0  0  0  0  0  0  0  0  0
   18.8091   70.4978  -10.1935 O   0  0  0  0  0  0  0  0  0  0  0  0
   17.3568   69.9221   -6.4410 N   0  0  0  0  0  0  0  0  0  0  0  0
   17.1759   70.8917   -8.6028 N   0  0  0  0  0  0  0  0  0  0  0  0
   16.6159   70.7388   -7.3276 C   0  0  0  0  0  0  0  0  0  0  0  0
   18.5483   69.3415   -6.8583 C   0  0  0  0  0  0  0  0  0  0  0  0
   19.0695   69.4965   -8.0770 C   0  0  0  0  0  0  0  0  0  0  0  0
   18.3573   70.3340   -9.0642 C   0  0  0  0  0  0  0  0  0  0  0  0
   16.6770   71.4543   -9.2383 H   0  0  0  0  0  0  0  0  0  0  0  0
   22.0764   70.7972   -1.4241 O   0  0  0  0  0  0  0  0  0  0  0  0
   23.1219   71.6810   -2.2840 P   0  0  2  0  0  0  0  0  0  0  0  0
   24.2938   70.6232   -2.6417 O   0  0  0  0  0  0  0  0  0  0  0  0
   23.6001   72.9211   -1.5859 O   0  0  0  0  0  0  0  0  0  0  0  0
   22.3734   71.9494   -3.6877 O   0  0  0  0  0  0  0  0  0  0  0  0
   23.0315   74.0060   -4.6606 O   0  0  0  0  0  0  0  0  0  0  0  0
   20.0183   72.7941   -7.2141 O   0  0  0  0  0  0  0  0  0  0  0  0
   19.7206   72.4924   -4.3236 O   0  0  0  0  0  0  0  0  0  0  0  0
   22.8003   72.5580   -8.0240 O   0  0  0  0  0  0  0  0  0  0  0  0
   21.1087   72.6193   -6.3094 C   0  0  2  0  0  0  0  0  0  0  0  0
   20.7551   73.2370   -4.9562 C   0  0  2  0  0  0  0  0  0  0  0  0
   22.3349   73.3131   -6.9069 C   0  0  1  0  0  0  0  0  0  0  0  0
   21.9760   73.2744   -4.0361 C   0  0  1  0  0  0  0  0  0  0  0  0
   23.4650   73.4227   -5.8874 C   0  0  1  0  0  0  0  0  0  0  0  0
   19.2276   72.3614   -6.8552 H   0  0  0  0  0  0  0  0  0  0  0  0
   18.9429   72.4643   -4.9021 H   0  0  0  0  0  0  0  0  0  0  0  0
   22.0903   72.4806   -8.6803 H   0  0  0  0  0  0  0  0  0  0  0  0
   24.6694   75.3930   -5.4765 O   0  0  0  0  0  0  0  0  0  0  0  0
   25.1521   74.2599   -7.3954 O   0  0  0  0  0  0  0  0  0  0  0  0
   24.5146   74.3754   -6.3594 C   0  0  0  0  0  0  0  0  0  0  0  0
  1  4  1  0
  1 24  1  0
  1  2  1  1
  1  3  2  0
 25 28  1  0
 25 24  1  0
 25 26  1  6
 25 27  2  0
  6 11  1  0
  6 12  1  0
 29 36  1  0
 29 37  1  0
  9  7  1  1
  7 13  1  0
 10  8  1  1
  8 14  1  0
  4  5  1  0
 36 28  1  6
 33 30  1  6
 30 38  1  0
 34 31  1  1
 31 39  1  0
 35 32  1  6
 32 40  1  0
 41 43  1  0
 15 19  2  0
 42 43  2  0
 16 22  2  0
 12 17  1  6
 17 19  1  0
 17 20  1  0
 18 19  1  0
 18 22  1  0
 18 23  1  0
  9 10  1  0
  9 11  1  0
 10 12  1  0
 11  5  1  6
 33 34  1  0
 33 35  1  0
 34 36  1  0
 35 37  1  0
 37 43  1  6
 20 21  2  0
 21 22  1  0
M  CHG  3   2  -1  26  -1  41  -1
M  END
>  <COMPND>  (23) 
    udp_gluA.pdb 

>  <AUTHOR>  (23) 
    GENERATED BY OPEN BABEL 3.1.1

>  <MASTER>  (23) 
        0    0    0    0    0    0    0    0   56    0   56    0

>  <minimizedAffinity>  (23) 
-8.77025

>  <CNNscore>  (23) 
0.6411178112

>  <CNNaffinity>  (23) 
4.4911994934

>  <CNN_VS>  (23) 
2.8793880939

>  <CNNaffinity_variance>  (23) 
0.5686483383

$$$$
24
     RDKit          3D

 43 45  0  0  0  0  0  0  0  0999 V2000
   21.1030   70.7411   -1.1999 P   0  0  2  0  0  0  0  0  0  0  0  0
   22.7071   70.5479   -1.1079 O   0  0  0  0  0  0  0  0  0  0  0  0
   20.2952   69.6055   -0.6434 O   0  0  0  0  0  0  0  0  0  0  0  0
   20.8426   71.0913   -2.7580 O   0  0  0  0  0  0  0  0  0  0  0  0
   20.1820   70.1337   -3.5649 C   0  0  0  0  0  0  0  0  0  0  0  0
   18.0968   70.8969   -4.4854 O   0  0  0  0  0  0  0  0  0  0  0  0
   16.7702   69.0794   -2.5035 O   0  0  0  0  0  0  0  0  0  0  0  0
   16.6384   67.6383   -4.8147 O   0  0  0  0  0  0  0  0  0  0  0  0
   17.9867   68.8930   -3.2273 C   0  0  1  0  0  0  0  0  0  0  0  0
   17.6901   68.5706   -4.6766 C   0  0  2  0  0  0  0  0  0  0  0  0
   18.6799   70.2442   -3.3369 C   0  0  1  0  0  0  0  0  0  0  0  0
   17.3374   69.9375   -5.2379 C   0  0  2  0  0  0  0  0  0  0  0  0
   16.3094   68.2294   -2.4206 H   0  0  0  0  0  0  0  0  0  0  0  0
   16.9121   66.7846   -4.4429 H   0  0  0  0  0  0  0  0  0  0  0  0
   15.8382   71.4240   -7.1139 O   0  0  0  0  0  0  0  0  0  0  0  0
   18.7212   70.3470  -10.5450 O   0  0  0  0  0  0  0  0  0  0  0  0
   17.6736   70.0625   -6.6279 N   0  0  0  0  0  0  0  0  0  0  0  0
   17.2749   70.8853   -8.8212 N   0  0  0  0  0  0  0  0  0  0  0  0
   16.8535   70.8328   -7.4860 C   0  0  0  0  0  0  0  0  0  0  0  0
   18.8045   69.4283   -7.1277 C   0  0  0  0  0  0  0  0  0  0  0  0
   19.1934   69.4876   -8.4029 C   0  0  0  0  0  0  0  0  0  0  0  0
   18.3913   70.2711   -9.3652 C   0  0  0  0  0  0  0  0  0  0  0  0
   16.7188   71.4140   -9.4380 H   0  0  0  0  0  0  0  0  0  0  0  0
   20.8656   72.1604   -0.4638 O   0  0  0  0  0  0  0  0  0  0  0  0
   19.8952   73.3992   -0.8346 P   0  0  2  0  0  0  0  0  0  0  0  0
   20.0312   74.3732    0.4511 O   0  0  0  0  0  0  0  0  0  0  0  0
   18.4853   73.0004   -1.1619 O   0  0  0  0  0  0  0  0  0  0  0  0
   20.6624   74.1797   -2.0197 O   0  0  0  0  0  0  0  0  0  0  0  0
   22.8428   73.6940   -2.8066 O   0  0  0  0  0  0  0  0  0  0  0  0
   22.4660   77.6897   -3.7867 O   0  0  0  0  0  0  0  0  0  0  0  0
   21.5118   76.7010   -1.2087 O   0  0  0  0  0  0  0  0  0  0  0  0
   22.2462   75.6540   -5.8504 O   0  0  0  0  0  0  0  0  0  0  0  0
   22.0121   76.3557   -3.5574 C   0  0  2  0  0  0  0  0  0  0  0  0
   22.3153   75.9530   -2.1140 C   0  0  2  0  0  0  0  0  0  0  0  0
   22.7456   75.4324   -4.5328 C   0  0  1  0  0  0  0  0  0  0  0  0
   22.0552   74.4619   -1.8958 C   0  0  1  0  0  0  0  0  0  0  0  0
   22.5380   73.9641   -4.1730 C   0  0  1  0  0  0  0  0  0  0  0  0
   22.0134   78.2945   -3.1779 H   0  0  0  0  0  0  0  0  0  0  0  0
   21.6716   77.6481   -1.3418 H   0  0  0  0  0  0  0  0  0  0  0  0
   22.3722   76.5850   -6.0916 H   0  0  0  0  0  0  0  0  0  0  0  0
   23.6721   71.9131   -4.2678 O   0  0  0  0  0  0  0  0  0  0  0  0
   24.0687   73.3997   -5.9506 O   0  0  0  0  0  0  0  0  0  0  0  0
   23.5045   73.0955   -4.9103 C   0  0  0  0  0  0  0  0  0  0  0  0
  1  4  1  0
  1 24  1  0
  1  2  1  6
  1  3  2  0
 25 28  1  0
 25 24  1  0
 25 26  1  1
 25 27  2  0
  6 11  1  0
  6 12  1  0
 29 36  1  0
 29 37  1  0
  9  7  1  1
  7 13  1  0
 10  8  1  1
  8 14  1  0
  4  5  1  0
 36 28  1  6
 33 30  1  1
 30 38  1  0
 34 31  1  1
 31 39  1  0
 35 32  1  6
 32 40  1  0
 41 43  1  0
 15 19  2  0
 42 43  2  0
 16 22  2  0
 12 17  1  6
 17 19  1  0
 17 20  1  0
 18 19  1  0
 18 22  1  0
 18 23  1  0
  9 10  1  0
  9 11  1  0
 10 12  1  0
 11  5  1  6
 33 34  1  0
 33 35  1  0
 34 36  1  0
 35 37  1  0
 37 43  1  6
 20 21  2  0
 21 22  1  0
M  CHG  3   2  -1  26  -1  41  -1
M  END
>  <COMPND>  (24) 
    udp_gluA.pdb 

>  <AUTHOR>  (24) 
    GENERATED BY OPEN BABEL 3.1.1

>  <MASTER>  (24) 
        0    0    0    0    0    0    0    0   56    0   56    0

>  <minimizedAffinity>  (24) 
-7.83674

>  <CNNscore>  (24) 
0.6073525548

>  <CNNaffinity>  (24) 
4.6582260132

>  <CNN_VS>  (24) 
2.8291854858

>  <CNNaffinity_variance>  (24) 
0.1077944413

$$$$
25
     RDKit          3D

 43 45  0  0  0  0  0  0  0  0999 V2000
   14.3144   73.8366   -3.7555 P   0  0  2  0  0  0  0  0  0  0  0  0
   12.9524   73.3526   -4.4833 O   0  0  0  0  0  0  0  0  0  0  0  0
   14.1366   74.9247   -2.7376 O   0  0  0  0  0  0  0  0  0  0  0  0
   15.3105   74.1792   -4.9836 O   0  0  0  0  0  0  0  0  0  0  0  0
   15.2689   73.3591   -6.1369 C   0  0  0  0  0  0  0  0  0  0  0  0
   17.5526   72.6295   -5.9630 O   0  0  0  0  0  0  0  0  0  0  0  0
   17.7589   73.1851   -8.9025 O   0  0  0  0  0  0  0  0  0  0  0  0
   17.4581   70.4759   -8.8278 O   0  0  0  0  0  0  0  0  0  0  0  0
   16.6563   72.6706   -8.1552 C   0  0  1  0  0  0  0  0  0  0  0  0
   16.9138   71.2305   -7.7653 C   0  0  2  0  0  0  0  0  0  0  0  0
   16.6391   73.3688   -6.8023 C   0  0  1  0  0  0  0  0  0  0  0  0
   17.8803   71.3863   -6.6036 C   0  0  2  0  0  0  0  0  0  0  0  0
   17.7905   72.7538   -9.7712 H   0  0  0  0  0  0  0  0  0  0  0  0
   16.8047   70.4052   -9.5420 H   0  0  0  0  0  0  0  0  0  0  0  0
   19.9559   70.5584   -4.8764 O   0  0  0  0  0  0  0  0  0  0  0  0
   17.3168   67.2944   -2.9723 O   0  0  0  0  0  0  0  0  0  0  0  0
   17.7627   70.3227   -5.6466 N   0  0  0  0  0  0  0  0  0  0  0  0
   18.6398   68.9329   -3.9304 N   0  0  0  0  0  0  0  0  0  0  0  0
   18.8657   69.9857   -4.8268 C   0  0  0  0  0  0  0  0  0  0  0  0
   16.5657   69.6274   -5.5260 C   0  0  0  0  0  0  0  0  0  0  0  0
   16.3655   68.6262   -4.6668 C   0  0  0  0  0  0  0  0  0  0  0  0
   17.4676   68.2110   -3.7744 C   0  0  0  0  0  0  0  0  0  0  0  0
   19.3938   68.6788   -3.3505 H   0  0  0  0  0  0  0  0  0  0  0  0
   14.9217   72.4583   -3.1687 O   0  0  0  0  0  0  0  0  0  0  0  0
   15.5821   72.1156   -1.7333 P   0  0  2  0  0  0  0  0  0  0  0  0
   15.7842   70.5106   -1.7930 O   0  0  0  0  0  0  0  0  0  0  0  0
   14.7816   72.5948   -0.5571 O   0  0  0  0  0  0  0  0  0  0  0  0
   17.0765   72.7176   -1.8161 O   0  0  0  0  0  0  0  0  0  0  0  0
   18.7369   71.6981   -0.4697 O   0  0  0  0  0  0  0  0  0  0  0  0
   20.6116   75.1986   -1.6100 O   0  0  0  0  0  0  0  0  0  0  0  0
   17.7980   75.2138   -0.8239 O   0  0  0  0  0  0  0  0  0  0  0  0
   21.3527   72.6757   -2.8497 O   0  0  0  0  0  0  0  0  0  0  0  0
   19.7318   74.0839   -1.7567 C   0  0  2  0  0  0  0  0  0  0  0  0
   18.6808   74.1120   -0.6467 C   0  0  2  0  0  0  0  0  0  0  0  0
   20.5685   72.8058   -1.6654 C   0  0  1  0  0  0  0  0  0  0  0  0
   17.8658   72.8180   -0.6322 C   0  0  1  0  0  0  0  0  0  0  0  0
   19.6842   71.5698   -1.5276 C   0  0  1  0  0  0  0  0  0  0  0  0
   20.1020   76.0224   -1.6647 H   0  0  0  0  0  0  0  0  0  0  0  0
   18.3086   76.0382   -0.8344 H   0  0  0  0  0  0  0  0  0  0  0  0
   21.9200   73.4561   -2.9493 H   0  0  0  0  0  0  0  0  0  0  0  0
   19.7119   69.2768   -1.0347 O   0  0  0  0  0  0  0  0  0  0  0  0
   21.6907   70.3987   -0.8765 O   0  0  0  0  0  0  0  0  0  0  0  0
   20.4919   70.3834   -1.1126 C   0  0  0  0  0  0  0  0  0  0  0  0
  1  4  1  0
  1 24  1  0
  1  2  1  6
  1  3  2  0
 25 28  1  0
 25 24  1  0
 25 26  1  1
 25 27  2  0
  6 11  1  0
  6 12  1  0
 29 36  1  0
 29 37  1  0
  9  7  1  6
  7 13  1  0
 10  8  1  6
  8 14  1  0
  4  5  1  0
 36 28  1  6
 33 30  1  1
 30 38  1  0
 34 31  1  6
 31 39  1  0
 35 32  1  6
 32 40  1  0
 41 43  1  0
 15 19  2  0
 42 43  2  0
 16 22  2  0
 12 17  1  1
 17 19  1  0
 17 20  1  0
 18 19  1  0
 18 22  1  0
 18 23  1  0
  9 10  1  0
  9 11  1  0
 10 12  1  0
 11  5  1  1
 33 34  1  0
 33 35  1  0
 34 36  1  0
 35 37  1  0
 37 43  1  1
 20 21  2  0
 21 22  1  0
M  CHG  3   2  -1  26  -1  41  -1
M  END
>  <COMPND>  (25) 
    udp_gluA.pdb 

>  <AUTHOR>  (25) 
    GENERATED BY OPEN BABEL 3.1.1

>  <MASTER>  (25) 
        0    0    0    0    0    0    0    0   56    0   56    0

>  <minimizedAffinity>  (25) 
-6.46204

>  <CNNscore>  (25) 
0.5852409005

>  <CNNaffinity>  (25) 
4.3443746567

>  <CNN_VS>  (25) 
2.5425057411

>  <CNNaffinity_variance>  (25) 
0.3688688874

$$$$
26
     RDKit          3D

 43 45  0  0  0  0  0  0  0  0999 V2000
   18.9035   69.2887   -3.9411 P   0  0  2  0  0  0  0  0  0  0  0  0
   20.4762   69.5756   -4.1924 O   0  0  0  0  0  0  0  0  0  0  0  0
   18.6046   68.0569   -3.1378 O   0  0  0  0  0  0  0  0  0  0  0  0
   18.2584   69.3339   -5.4243 O   0  0  0  0  0  0  0  0  0  0  0  0
   18.9631   70.0127   -6.4476 C   0  0  0  0  0  0  0  0  0  0  0  0
   16.7863   70.1446   -7.4585 O   0  0  0  0  0  0  0  0  0  0  0  0
   18.2234   70.4382  -10.0739 O   0  0  0  0  0  0  0  0  0  0  0  0
   17.5111   73.0057   -9.4939 O   0  0  0  0  0  0  0  0  0  0  0  0
   18.5800   70.9398   -8.7856 C   0  0  1  0  0  0  0  0  0  0  0  0
   17.6955   72.1118   -8.4162 C   0  0  2  0  0  0  0  0  0  0  0  0
   18.1794   69.8991   -7.7489 C   0  0  1  0  0  0  0  0  0  0  0  0
   16.4080   71.4179   -8.0052 C   0  0  2  0  0  0  0  0  0  0  0  0
   18.4697   71.0861  -10.7530 H   0  0  0  0  0  0  0  0  0  0  0  0
   18.3589   73.4218   -9.7175 H   0  0  0  0  0  0  0  0  0  0  0  0
   14.4913   73.4104   -8.5817 O   0  0  0  0  0  0  0  0  0  0  0  0
   13.6816   74.1831   -4.1105 O   0  0  0  0  0  0  0  0  0  0  0  0
   15.6813   72.1556   -7.0109 N   0  0  0  0  0  0  0  0  0  0  0  0
   14.0906   73.7941   -6.3543 N   0  0  0  0  0  0  0  0  0  0  0  0
   14.7404   73.1356   -7.4064 C   0  0  0  0  0  0  0  0  0  0  0  0
   15.9020   71.9047   -5.6621 C   0  0  0  0  0  0  0  0  0  0  0  0
   15.2748   72.5404   -4.6705 C   0  0  0  0  0  0  0  0  0  0  0  0
   14.2768   73.5797   -4.9982 C   0  0  0  0  0  0  0  0  0  0  0  0
   13.4325   74.4821   -6.6049 H   0  0  0  0  0  0  0  0  0  0  0  0
   18.3846   70.6680   -3.2770 O   0  0  0  0  0  0  0  0  0  0  0  0
   18.4299   71.1930   -1.7485 P   0  0  2  0  0  0  0  0  0  0  0  0
   18.8505   69.8703   -0.9155 O   0  0  0  0  0  0  0  0  0  0  0  0
   17.1579   71.8394   -1.2816 O   0  0  0  0  0  0  0  0  0  0  0  0
   19.7293   72.1467   -1.6816 O   0  0  0  0  0  0  0  0  0  0  0  0
   21.9176   71.2551   -1.8409 O   0  0  0  0  0  0  0  0  0  0  0  0
   22.6342   74.9386   -0.1128 O   0  0  0  0  0  0  0  0  0  0  0  0
   20.3748   73.3066    0.7625 O   0  0  0  0  0  0  0  0  0  0  0  0
   23.2282   74.5061   -2.9254 O   0  0  0  0  0  0  0  0  0  0  0  0
   21.9527   74.0000   -0.9450 C   0  0  2  0  0  0  0  0  0  0  0  0
   21.4192   72.8506   -0.0896 C   0  0  2  0  0  0  0  0  0  0  0  0
   22.9498   73.4747   -1.9803 C   0  0  1  0  0  0  0  0  0  0  0  0
   20.8867   71.7170   -0.9672 C   0  0  1  0  0  0  0  0  0  0  0  0
   22.3927   72.2662   -2.7270 C   0  0  1  0  0  0  0  0  0  0  0  0
   22.0202   75.2860    0.5533 H   0  0  0  0  0  0  0  0  0  0  0  0
   20.7056   74.0262    1.3220 H   0  0  0  0  0  0  0  0  0  0  0  0
   23.5832   75.2813   -2.4630 H   0  0  0  0  0  0  0  0  0  0  0  0
   23.7111   72.1911   -4.6655 O   0  0  0  0  0  0  0  0  0  0  0  0
   24.0681   70.5708   -3.1015 O   0  0  0  0  0  0  0  0  0  0  0  0
   23.4735   71.5668   -3.4854 C   0  0  0  0  0  0  0  0  0  0  0  0
  1  4  1  0
  1 24  1  0
  1  2  1  6
  1  3  2  0
 25 28  1  0
 25 24  1  0
 25 26  1  1
 25 27  2  0
  6 11  1  0
  6 12  1  0
 29 36  1  0
 29 37  1  0
  9  7  1  6
  7 13  1  0
 10  8  1  6
  8 14  1  0
  4  5  1  0
 36 28  1  6
 33 30  1  1
 30 38  1  0
 34 31  1  1
 31 39  1  0
 35 32  1  6
 32 40  1  0
 41 43  1  0
 15 19  2  0
 42 43  2  0
 16 22  2  0
 12 17  1  1
 17 19  1  0
 17 20  1  0
 18 19  1  0
 18 22  1  0
 18 23  1  0
  9 10  1  0
  9 11  1  0
 10 12  1  0
 11  5  1  1
 33 34  1  0
 33 35  1  0
 34 36  1  0
 35 37  1  0
 37 43  1  1
 20 21  2  0
 21 22  1  0
M  CHG  3   2  -1  26  -1  41  -1
M  END
>  <COMPND>  (26) 
    udp_gluA.pdb 

>  <AUTHOR>  (26) 
    GENERATED BY OPEN BABEL 3.1.1

>  <MASTER>  (26) 
        0    0    0    0    0    0    0    0   56    0   56    0

>  <minimizedAffinity>  (26) 
-8.33019

>  <CNNscore>  (26) 
0.5662664175

>  <CNNaffinity>  (26) 
4.4996404648

>  <CNN_VS>  (26) 
2.5479953289

>  <CNNaffinity_variance>  (26) 
0.0960663110

$$$$
27
     RDKit          3D

 43 45  0  0  0  0  0  0  0  0999 V2000
   22.1387   71.3638   -3.0818 P   0  0  2  0  0  0  0  0  0  0  0  0
   21.5076   71.8795   -4.4799 O   0  0  0  0  0  0  0  0  0  0  0  0
   23.5177   70.7813   -3.1857 O   0  0  0  0  0  0  0  0  0  0  0  0
   21.0032   70.3790   -2.4828 O   0  0  0  0  0  0  0  0  0  0  0  0
   20.2307   69.6096   -3.3859 C   0  0  0  0  0  0  0  0  0  0  0  0
   18.2263   70.6429   -4.2180 O   0  0  0  0  0  0  0  0  0  0  0  0
   16.7419   68.8693   -2.3095 O   0  0  0  0  0  0  0  0  0  0  0  0
   16.4183   67.5835   -4.6923 O   0  0  0  0  0  0  0  0  0  0  0  0
   17.9195   68.5946   -3.0687 C   0  0  1  0  0  0  0  0  0  0  0  0
   17.5669   68.3883   -4.5266 C   0  0  2  0  0  0  0  0  0  0  0  0
   18.7532   69.8676   -3.1196 C   0  0  1  0  0  0  0  0  0  0  0  0
   17.3556   69.8146   -5.0048 C   0  0  2  0  0  0  0  0  0  0  0  0
   16.1931   68.0703   -2.2630 H   0  0  0  0  0  0  0  0  0  0  0  0
   16.6038   66.6857   -4.3736 H   0  0  0  0  0  0  0  0  0  0  0  0
   15.8157   71.3160   -6.8354 O   0  0  0  0  0  0  0  0  0  0  0  0
   18.7011   70.3846  -10.3069 O   0  0  0  0  0  0  0  0  0  0  0  0
   17.6814   69.9811   -6.3930 N   0  0  0  0  0  0  0  0  0  0  0  0
   17.2537   70.8498   -8.5629 N   0  0  0  0  0  0  0  0  0  0  0  0
   16.8409   70.7554   -7.2273 C   0  0  0  0  0  0  0  0  0  0  0  0
   18.8223   69.3830   -6.9142 C   0  0  0  0  0  0  0  0  0  0  0  0
   19.2028   69.4821   -8.1894 C   0  0  0  0  0  0  0  0  0  0  0  0
   18.3795   70.2726   -9.1278 C   0  0  0  0  0  0  0  0  0  0  0  0
   16.6834   71.3821   -9.1636 H   0  0  0  0  0  0  0  0  0  0  0  0
   22.0280   72.6666   -2.1313 O   0  0  0  0  0  0  0  0  0  0  0  0
   22.2419   72.8394   -0.5382 P   0  0  2  0  0  0  0  0  0  0  0  0
   23.2567   71.6337   -0.1683 O   0  0  0  0  0  0  0  0  0  0  0  0
   20.9688   72.8422    0.2574 O   0  0  0  0  0  0  0  0  0  0  0  0
   23.1287   74.1786   -0.3873 O   0  0  0  0  0  0  0  0  0  0  0  0
   22.6186   76.3501    0.4088 O   0  0  0  0  0  0  0  0  0  0  0  0
   25.2549   77.1783   -2.6623 O   0  0  0  0  0  0  0  0  0  0  0  0
   23.1857   75.1431   -2.9954 O   0  0  0  0  0  0  0  0  0  0  0  0
   26.1344   77.3537    0.1029 O   0  0  0  0  0  0  0  0  0  0  0  0
   24.7009   76.4149   -1.5908 C   0  0  2  0  0  0  0  0  0  0  0  0
   23.2480   76.0625   -1.9112 C   0  0  2  0  0  0  0  0  0  0  0  0
   24.7749   77.2624   -0.3187 C   0  0  1  0  0  0  0  0  0  0  0  0
   22.5535   75.4470   -0.6956 C   0  0  1  0  0  0  0  0  0  0  0  0
   23.9545   76.6454    0.8103 C   0  0  1  0  0  0  0  0  0  0  0  0
   25.2185   76.6598   -3.4816 H   0  0  0  0  0  0  0  0  0  0  0  0
   23.6248   75.5271   -3.7701 H   0  0  0  0  0  0  0  0  0  0  0  0
   26.6675   77.7448   -0.6069 H   0  0  0  0  0  0  0  0  0  0  0  0
   24.0199   78.8866    1.4990 O   0  0  0  0  0  0  0  0  0  0  0  0
   23.4171   77.3364    3.0587 O   0  0  0  0  0  0  0  0  0  0  0  0
   23.7618   77.6244    1.9224 C   0  0  0  0  0  0  0  0  0  0  0  0
  1  4  1  0
  1 24  1  0
  1  2  1  6
  1  3  2  0
 25 28  1  0
 25 24  1  0
 25 26  1  1
 25 27  2  0
  6 11  1  0
  6 12  1  0
 29 36  1  0
 29 37  1  0
  9  7  1  1
  7 13  1  0
 10  8  1  1
  8 14  1  0
  4  5  1  0
 36 28  1  1
 33 30  1  6
 30 38  1  0
 34 31  1  6
 31 39  1  0
 35 32  1  1
 32 40  1  0
 41 43  1  0
 15 19  2  0
 42 43  2  0
 16 22  2  0
 12 17  1  6
 17 19  1  0
 17 20  1  0
 18 19  1  0
 18 22  1  0
 18 23  1  0
  9 10  1  0
  9 11  1  0
 10 12  1  0
 11  5  1  6
 33 34  1  0
 33 35  1  0
 34 36  1  0
 35 37  1  0
 37 43  1  1
 20 21  2  0
 21 22  1  0
M  CHG  3   2  -1  26  -1  41  -1
M  END
>  <COMPND>  (27) 
    udp_gluA.pdb 

>  <AUTHOR>  (27) 
    GENERATED BY OPEN BABEL 3.1.1

>  <MASTER>  (27) 
        0    0    0    0    0    0    0    0   56    0   56    0

>  <minimizedAffinity>  (27) 
-7.73021

>  <CNNscore>  (27) 
0.5253920555

>  <CNNaffinity>  (27) 
4.4993743896

>  <CNN_VS>  (27) 
2.3639354706

>  <CNNaffinity_variance>  (27) 
0.0263931397

$$$$
28
     RDKit          3D

 43 45  0  0  0  0  0  0  0  0999 V2000
   16.8102   72.7516   -4.0959 P   0  0  2  0  0  0  0  0  0  0  0  0
   15.2815   72.4434   -3.6636 O   0  0  0  0  0  0  0  0  0  0  0  0
   17.1916   74.2028   -4.0843 O   0  0  0  0  0  0  0  0  0  0  0  0
   16.9726   71.9937   -5.5162 O   0  0  0  0  0  0  0  0  0  0  0  0
   17.5728   72.6931   -6.5910 C   0  0  0  0  0  0  0  0  0  0  0  0
   19.3509   71.4179   -5.5962 O   0  0  0  0  0  0  0  0  0  0  0  0
   20.6037   71.3889   -8.3204 O   0  0  0  0  0  0  0  0  0  0  0  0
   19.4709   68.9137   -8.1592 O   0  0  0  0  0  0  0  0  0  0  0  0
   19.2238   71.3244   -7.9596 C   0  0  1  0  0  0  0  0  0  0  0  0
   18.8910   69.9562   -7.4032 C   0  0  2  0  0  0  0  0  0  0  0  0
   19.0126   72.2212   -6.7475 C   0  0  1  0  0  0  0  0  0  0  0  0
   19.4561   70.0421   -5.9957 C   0  0  2  0  0  0  0  0  0  0  0  0
   20.7631   70.8236   -9.0928 H   0  0  0  0  0  0  0  0  0  0  0  0
   19.0780   68.9005   -9.0465 H   0  0  0  0  0  0  0  0  0  0  0  0
   20.4266   69.2717   -3.4578 O   0  0  0  0  0  0  0  0  0  0  0  0
   16.5816   66.9176   -2.4997 O   0  0  0  0  0  0  0  0  0  0  0  0
   18.7294   69.2282   -5.0628 N   0  0  0  0  0  0  0  0  0  0  0  0
   18.5111   68.0991   -2.9834 N   0  0  0  0  0  0  0  0  0  0  0  0
   19.3075   68.8982   -3.8142 C   0  0  0  0  0  0  0  0  0  0  0  0
   17.4592   68.7673   -5.3870 C   0  0  0  0  0  0  0  0  0  0  0  0
   16.7121   68.0065   -4.5847 C   0  0  0  0  0  0  0  0  0  0  0  0
   17.2428   67.6160   -3.2621 C   0  0  0  0  0  0  0  0  0  0  0  0
   18.8931   67.8546   -2.1096 H   0  0  0  0  0  0  0  0  0  0  0  0
   17.6667   71.8222   -3.0882 O   0  0  0  0  0  0  0  0  0  0  0  0
   18.1310   72.0628   -1.5584 P   0  0  2  0  0  0  0  0  0  0  0  0
   18.3380   70.5598   -0.9940 O   0  0  0  0  0  0  0  0  0  0  0  0
   17.1823   72.9012   -0.7515 O   0  0  0  0  0  0  0  0  0  0  0  0
   19.6237   72.6637   -1.6734 O   0  0  0  0  0  0  0  0  0  0  0  0
   21.6750   71.4917   -1.8405 O   0  0  0  0  0  0  0  0  0  0  0  0
   22.8370   74.9474    0.1026 O   0  0  0  0  0  0  0  0  0  0  0  0
   20.3556   73.5951    0.8431 O   0  0  0  0  0  0  0  0  0  0  0  0
   23.4408   74.5859   -2.7180 O   0  0  0  0  0  0  0  0  0  0  0  0
   22.0571   74.1554   -0.7931 C   0  0  2  0  0  0  0  0  0  0  0  0
   21.3508   73.0462   -0.0131 C   0  0  2  0  0  0  0  0  0  0  0  0
   23.0009   73.5540   -1.8369 C   0  0  1  0  0  0  0  0  0  0  0  0
   20.6933   72.0433   -0.9621 C   0  0  1  0  0  0  0  0  0  0  0  0
   22.3054   72.4735   -2.6600 C   0  0  1  0  0  0  0  0  0  0  0  0
   22.2583   75.3399    0.7752 H   0  0  0  0  0  0  0  0  0  0  0  0
   20.7658   74.2326    1.4479 H   0  0  0  0  0  0  0  0  0  0  0  0
   23.8851   75.2801   -2.2066 H   0  0  0  0  0  0  0  0  0  0  0  0
   23.6284   72.3064   -4.5895 O   0  0  0  0  0  0  0  0  0  0  0  0
   23.7642   70.5991   -3.0842 O   0  0  0  0  0  0  0  0  0  0  0  0
   23.3013   71.6740   -3.4354 C   0  0  0  0  0  0  0  0  0  0  0  0
  1  4  1  0
  1 24  1  0
  1  2  1  1
  1  3  2  0
 25 28  1  0
 25 24  1  0
 25 26  1  1
 25 27  2  0
  6 11  1  0
  6 12  1  0
 29 36  1  0
 29 37  1  0
  9  7  1  1
  7 13  1  0
 10  8  1  6
  8 14  1  0
  4  5  1  0
 36 28  1  6
 33 30  1  1
 30 38  1  0
 34 31  1  1
 31 39  1  0
 35 32  1  6
 32 40  1  0
 41 43  1  0
 15 19  2  0
 42 43  2  0
 16 22  2  0
 12 17  1  1
 17 19  1  0
 17 20  1  0
 18 19  1  0
 18 22  1  0
 18 23  1  0
  9 10  1  0
  9 11  1  0
 10 12  1  0
 11  5  1  1
 33 34  1  0
 33 35  1  0
 34 36  1  0
 35 37  1  0
 37 43  1  6
 20 21  2  0
 21 22  1  0
M  CHG  3   2  -1  26  -1  41  -1
M  END
>  <COMPND>  (28) 
    udp_gluA.pdb 

>  <AUTHOR>  (28) 
    GENERATED BY OPEN BABEL 3.1.1

>  <MASTER>  (28) 
        0    0    0    0    0    0    0    0   56    0   56    0

>  <minimizedAffinity>  (28) 
-7.89265

>  <CNNscore>  (28) 
0.5244355798

>  <CNNaffinity>  (28) 
4.2776975632

>  <CNN_VS>  (28) 
2.2433767319

>  <CNNaffinity_variance>  (28) 
0.8257538676

$$$$
29
     RDKit          3D

 43 45  0  0  0  0  0  0  0  0999 V2000
   20.5394   70.7682   -1.8046 P   0  0  2  0  0  0  0  0  0  0  0  0
   20.5057   69.5789   -0.7076 O   0  0  0  0  0  0  0  0  0  0  0  0
   20.3344   72.1475   -1.2501 O   0  0  0  0  0  0  0  0  0  0  0  0
   19.4711   70.2949   -2.9238 O   0  0  0  0  0  0  0  0  0  0  0  0
   18.7264   69.1135   -2.6908 C   0  0  0  0  0  0  0  0  0  0  0  0
   17.0358   70.3299   -3.8907 O   0  0  0  0  0  0  0  0  0  0  0  0
   15.0529   68.5051   -2.5756 O   0  0  0  0  0  0  0  0  0  0  0  0
   15.2838   67.4337   -5.0725 O   0  0  0  0  0  0  0  0  0  0  0  0
   16.3709   68.2198   -3.0446 C   0  0  1  0  0  0  0  0  0  0  0  0
   16.3856   68.1512   -4.5570 C   0  0  2  0  0  0  0  0  0  0  0  0
   17.2407   69.4395   -2.7725 C   0  0  1  0  0  0  0  0  0  0  0  0
   16.3571   69.6211   -4.9396 C   0  0  2  0  0  0  0  0  0  0  0  0
   14.4786   67.7401   -2.7386 H   0  0  0  0  0  0  0  0  0  0  0  0
   15.3481   66.5040   -4.8017 H   0  0  0  0  0  0  0  0  0  0  0  0
   15.2982   71.2078   -7.0224 O   0  0  0  0  0  0  0  0  0  0  0  0
   19.0097   70.5322   -9.6705 O   0  0  0  0  0  0  0  0  0  0  0  0
   17.0255   69.8765   -6.1842 N   0  0  0  0  0  0  0  0  0  0  0  0
   17.1473   70.8690   -8.3397 N   0  0  0  0  0  0  0  0  0  0  0  0
   16.4064   70.6874   -7.1645 C   0  0  0  0  0  0  0  0  0  0  0  0
   18.2798   69.3283   -6.4230 C   0  0  0  0  0  0  0  0  0  0  0  0
   18.9739   69.5104   -7.5481 C   0  0  0  0  0  0  0  0  0  0  0  0
   18.3977   70.3440   -8.6234 C   0  0  0  0  0  0  0  0  0  0  0  0
   16.7359   71.4282   -9.0378 H   0  0  0  0  0  0  0  0  0  0  0  0
   21.9608   70.5428   -2.5406 O   0  0  0  0  0  0  0  0  0  0  0  0
   23.2892   71.4630   -2.5880 P   0  0  2  0  0  0  0  0  0  0  0  0
   24.2968   70.6100   -3.5248 O   0  0  0  0  0  0  0  0  0  0  0  0
   23.8458   71.8109   -1.2378 O   0  0  0  0  0  0  0  0  0  0  0  0
   22.8741   72.7350   -3.4891 O   0  0  0  0  0  0  0  0  0  0  0  0
   20.9241   72.6326   -4.8292 O   0  0  0  0  0  0  0  0  0  0  0  0
   22.9194   75.8450   -6.4926 O   0  0  0  0  0  0  0  0  0  0  0  0
   24.3777   73.4336   -5.7224 O   0  0  0  0  0  0  0  0  0  0  0  0
   20.6192   76.2885   -4.7712 O   0  0  0  0  0  0  0  0  0  0  0  0
   22.5143   74.9626   -5.4461 C   0  0  2  0  0  0  0  0  0  0  0  0
   22.9596   73.5379   -5.7769 C   0  0  2  0  0  0  0  0  0  0  0  0
   20.9897   75.0311   -5.3334 C   0  0  1  0  0  0  0  0  0  0  0  0
   22.3484   72.5329   -4.7996 C   0  0  1  0  0  0  0  0  0  0  0  0
   20.4465   73.9188   -4.4411 C   0  0  1  0  0  0  0  0  0  0  0  0
   23.8851   75.8182   -6.5827 H   0  0  0  0  0  0  0  0  0  0  0  0
   24.7721   74.0688   -6.3399 H   0  0  0  0  0  0  0  0  0  0  0  0
   20.9591   77.0051   -5.3296 H   0  0  0  0  0  0  0  0  0  0  0  0
   18.6623   72.7767   -5.4478 O   0  0  0  0  0  0  0  0  0  0  0  0
   18.1373   74.4905   -4.0384 O   0  0  0  0  0  0  0  0  0  0  0  0
   18.9664   73.7884   -4.5976 C   0  0  0  0  0  0  0  0  0  0  0  0
  1  4  1  0
  1 24  1  0
  1  2  1  1
  1  3  2  0
 25 28  1  0
 25 24  1  0
 25 26  1  6
 25 27  2  0
  6 11  1  0
  6 12  1  0
 29 36  1  0
 29 37  1  0
  9  7  1  6
  7 13  1  0
 10  8  1  6
  8 14  1  0
  4  5  1  0
 36 28  1  1
 33 30  1  6
 30 38  1  0
 34 31  1  1
 31 39  1  0
 35 32  1  1
 32 40  1  0
 41 43  1  0
 15 19  2  0
 42 43  2  0
 16 22  2  0
 12 17  1  6
 17 19  1  0
 17 20  1  0
 18 19  1  0
 18 22  1  0
 18 23  1  0
  9 10  1  0
  9 11  1  0
 10 12  1  0
 11  5  1  6
 33 34  1  0
 33 35  1  0
 34 36  1  0
 35 37  1  0
 37 43  1  6
 20 21  2  0
 21 22  1  0
M  CHG  3   2  -1  26  -1  41  -1
M  END
>  <COMPND>  (29) 
    udp_gluA.pdb 

>  <AUTHOR>  (29) 
    GENERATED BY OPEN BABEL 3.1.1

>  <MASTER>  (29) 
        0    0    0    0    0    0    0    0   56    0   56    0

>  <minimizedAffinity>  (29) 
-7.11529

>  <CNNscore>  (29) 
0.5079438090

>  <CNNaffinity>  (29) 
4.3726172447

>  <CNN_VS>  (29) 
2.2210438251

>  <CNNaffinity_variance>  (29) 
0.7432082295

$$$$
30
     RDKit          3D

 43 45  0  0  0  0  0  0  0  0999 V2000
   22.3113   71.4801   -2.9584 P   0  0  2  0  0  0  0  0  0  0  0  0
   23.6393   70.6189   -3.2957 O   0  0  0  0  0  0  0  0  0  0  0  0
   22.5080   72.5829   -1.9599 O   0  0  0  0  0  0  0  0  0  0  0  0
   21.2127   70.3606   -2.5615 O   0  0  0  0  0  0  0  0  0  0  0  0
   20.4220   69.7946   -3.5906 C   0  0  0  0  0  0  0  0  0  0  0  0
   18.3880   70.7937   -4.3920 O   0  0  0  0  0  0  0  0  0  0  0  0
   16.9716   69.0742   -2.3848 O   0  0  0  0  0  0  0  0  0  0  0  0
   16.5813   67.7139   -4.7158 O   0  0  0  0  0  0  0  0  0  0  0  0
   18.1266   68.7807   -3.1711 C   0  0  1  0  0  0  0  0  0  0  0  0
   17.7306   68.5279   -4.6104 C   0  0  2  0  0  0  0  0  0  0  0  0
   18.9522   70.0548   -3.2869 C   0  0  1  0  0  0  0  0  0  0  0  0
   17.4976   69.9380   -5.1257 C   0  0  2  0  0  0  0  0  0  0  0  0
   16.4283   68.2749   -2.2968 H   0  0  0  0  0  0  0  0  0  0  0  0
   16.7809   66.8272   -4.3753 H   0  0  0  0  0  0  0  0  0  0  0  0
   15.8461   71.2966   -6.9704 O   0  0  0  0  0  0  0  0  0  0  0  0
   18.6796   70.3526  -10.4809 O   0  0  0  0  0  0  0  0  0  0  0  0
   17.7799   70.0626   -6.5277 N   0  0  0  0  0  0  0  0  0  0  0  0
   17.2584   70.8243   -8.7172 N   0  0  0  0  0  0  0  0  0  0  0  0
   16.8847   70.7657   -7.3682 C   0  0  0  0  0  0  0  0  0  0  0  0
   18.9324   69.4941   -7.0564 C   0  0  0  0  0  0  0  0  0  0  0  0
   19.2752   69.5584   -8.3444 C   0  0  0  0  0  0  0  0  0  0  0  0
   18.3937   70.2742   -9.2900 C   0  0  0  0  0  0  0  0  0  0  0  0
   16.6498   71.3068   -9.3222 H   0  0  0  0  0  0  0  0  0  0  0  0
   21.8180   71.9725   -4.4169 O   0  0  0  0  0  0  0  0  0  0  0  0
   22.4625   73.0326   -5.4534 P   0  0  2  0  0  0  0  0  0  0  0  0
   21.9511   72.4992   -6.8937 O   0  0  0  0  0  0  0  0  0  0  0  0
   23.9526   73.1760   -5.3406 O   0  0  0  0  0  0  0  0  0  0  0  0
   21.6380   74.3974   -5.2085 O   0  0  0  0  0  0  0  0  0  0  0  0
   20.5210   75.5806   -3.4876 O   0  0  0  0  0  0  0  0  0  0  0  0
   17.6404   75.4832   -6.4474 O   0  0  0  0  0  0  0  0  0  0  0  0
   19.2605   73.1195   -5.8793 O   0  0  0  0  0  0  0  0  0  0  0  0
   19.1198   77.9318   -5.9311 O   0  0  0  0  0  0  0  0  0  0  0  0
   18.9664   75.5274   -5.9205 C   0  0  2  0  0  0  0  0  0  0  0  0
   19.2188   74.2856   -5.0650 C   0  0  2  0  0  0  0  0  0  0  0  0
   19.0959   76.7939   -5.0714 C   0  0  1  0  0  0  0  0  0  0  0  0
   20.5378   74.4067   -4.3006 C   0  0  1  0  0  0  0  0  0  0  0  0
   20.3778   76.7811   -4.2436 C   0  0  1  0  0  0  0  0  0  0  0  0
   17.5345   74.6864   -6.9907 H   0  0  0  0  0  0  0  0  0  0  0  0
   18.4267   73.0366   -6.3675 H   0  0  0  0  0  0  0  0  0  0  0  0
   18.3093   77.9517   -6.4637 H   0  0  0  0  0  0  0  0  0  0  0  0
   20.6579   79.0485   -3.7129 O   0  0  0  0  0  0  0  0  0  0  0  0
   20.0575   77.6494   -2.0155 O   0  0  0  0  0  0  0  0  0  0  0  0
   20.3390   77.8389   -3.1893 C   0  0  0  0  0  0  0  0  0  0  0  0
  1  4  1  0
  1 24  1  0
  1  2  1  6
  1  3  2  0
 25 28  1  0
 25 24  1  0
 25 26  1  6
 25 27  2  0
  6 11  1  0
  6 12  1  0
 29 36  1  0
 29 37  1  0
  9  7  1  1
  7 13  1  0
 10  8  1  1
  8 14  1  0
  4  5  1  0
 36 28  1  6
 33 30  1  1
 30 38  1  0
 34 31  1  6
 31 39  1  0
 35 32  1  6
 32 40  1  0
 41 43  1  0
 15 19  2  0
 42 43  2  0
 16 22  2  0
 12 17  1  6
 17 19  1  0
 17 20  1  0
 18 19  1  0
 18 22  1  0
 18 23  1  0
  9 10  1  0
  9 11  1  0
 10 12  1  0
 11  5  1  6
 33 34  1  0
 33 35  1  0
 34 36  1  0
 35 37  1  0
 37 43  1  1
 20 21  2  0
 21 22  1  0
M  CHG  3   2  -1  26  -1  41  -1
M  END
>  <COMPND>  (30) 
    udp_gluA.pdb 

>  <AUTHOR>  (30) 
    GENERATED BY OPEN BABEL 3.1.1

>  <MASTER>  (30) 
        0    0    0    0    0    0    0    0   56    0   56    0

>  <minimizedAffinity>  (30) 
-6.65548

>  <CNNscore>  (30) 
0.5040519238

>  <CNNaffinity>  (30) 
4.4062399864

>  <CNN_VS>  (30) 
2.2209737301

>  <CNNaffinity_variance>  (30) 
0.2446575612

$$$$
31
     RDKit          3D

 43 45  0  0  0  0  0  0  0  0999 V2000
   20.6474   70.9256   -1.3929 P   0  0  2  0  0  0  0  0  0  0  0  0
   22.1375   70.7843   -0.7777 O   0  0  0  0  0  0  0  0  0  0  0  0
   19.6059   71.4074   -0.4260 O   0  0  0  0  0  0  0  0  0  0  0  0
   20.3665   69.4814   -2.0663 O   0  0  0  0  0  0  0  0  0  0  0  0
   19.7521   69.4378   -3.3410 C   0  0  0  0  0  0  0  0  0  0  0  0
   17.8573   70.5627   -4.3015 O   0  0  0  0  0  0  0  0  0  0  0  0
   16.1648   68.7948   -2.5691 O   0  0  0  0  0  0  0  0  0  0  0  0
   15.9927   67.5825   -5.0056 O   0  0  0  0  0  0  0  0  0  0  0  0
   17.3902   68.4978   -3.2389 C   0  0  1  0  0  0  0  0  0  0  0  0
   17.1503   68.3415   -4.7256 C   0  0  2  0  0  0  0  0  0  0  0  0
   18.2673   69.7413   -3.1868 C   0  0  1  0  0  0  0  0  0  0  0  0
   17.0262   69.7862   -5.1787 C   0  0  2  0  0  0  0  0  0  0  0  0
   15.5876   68.0150   -2.5894 H   0  0  0  0  0  0  0  0  0  0  0  0
   16.1216   66.6709   -4.6986 H   0  0  0  0  0  0  0  0  0  0  0  0
   15.6883   71.3839   -7.0850 O   0  0  0  0  0  0  0  0  0  0  0  0
   18.8155   70.4433  -10.3376 O   0  0  0  0  0  0  0  0  0  0  0  0
   17.4688   69.9764   -6.5310 N   0  0  0  0  0  0  0  0  0  0  0  0
   17.2466   70.9131   -8.7034 N   0  0  0  0  0  0  0  0  0  0  0  0
   16.7238   70.7992   -7.4085 C   0  0  0  0  0  0  0  0  0  0  0  0
   18.6289   69.3535   -6.9751 C   0  0  0  0  0  0  0  0  0  0  0  0
   19.1148   69.4717   -8.2124 C   0  0  0  0  0  0  0  0  0  0  0  0
   18.3958   70.3127   -9.1917 C   0  0  0  0  0  0  0  0  0  0  0  0
   16.7440   71.4791   -9.3330 H   0  0  0  0  0  0  0  0  0  0  0  0
   20.8731   71.8859   -2.6735 O   0  0  0  0  0  0  0  0  0  0  0  0
   20.5527   73.4552   -2.8929 P   0  0  2  0  0  0  0  0  0  0  0  0
   21.2270   74.1549   -1.5982 O   0  0  0  0  0  0  0  0  0  0  0  0
   19.0954   73.7666   -3.0754 O   0  0  0  0  0  0  0  0  0  0  0  0
   21.4913   73.8957   -4.1288 O   0  0  0  0  0  0  0  0  0  0  0  0
   21.6791   75.5184   -5.8436 O   0  0  0  0  0  0  0  0  0  0  0  0
   21.8456   71.9965   -7.9970 O   0  0  0  0  0  0  0  0  0  0  0  0
   19.9431   72.3011   -5.8011 O   0  0  0  0  0  0  0  0  0  0  0  0
   24.2677   73.5325   -7.5223 O   0  0  0  0  0  0  0  0  0  0  0  0
   22.0535   72.8444   -6.8674 C   0  0  2  0  0  0  0  0  0  0  0  0
   20.7069   73.3626   -6.3618 C   0  0  2  0  0  0  0  0  0  0  0  0
   22.9410   74.0105   -7.3084 C   0  0  1  0  0  0  0  0  0  0  0  0
   20.9013   74.4494   -5.3036 C   0  0  1  0  0  0  0  0  0  0  0  0
   22.9831   75.1096   -6.2506 C   0  0  1  0  0  0  0  0  0  0  0  0
   21.2840   71.2481   -7.7407 H   0  0  0  0  0  0  0  0  0  0  0  0
   19.8161   71.6078   -6.4671 H   0  0  0  0  0  0  0  0  0  0  0  0
   24.2549   72.8323   -8.1934 H   0  0  0  0  0  0  0  0  0  0  0  0
   22.6157   77.3214   -6.9393 O   0  0  0  0  0  0  0  0  0  0  0  0
   24.7418   76.5166   -7.1159 O   0  0  0  0  0  0  0  0  0  0  0  0
   23.5680   76.3644   -6.8124 C   0  0  0  0  0  0  0  0  0  0  0  0
  1  4  1  0
  1 24  1  0
  1  2  1  1
  1  3  2  0
 25 28  1  0
 25 24  1  0
 25 26  1  1
 25 27  2  0
  6 11  1  0
  6 12  1  0
 29 36  1  0
 29 37  1  0
  9  7  1  1
  7 13  1  0
 10  8  1  1
  8 14  1  0
  4  5  1  0
 36 28  1  1
 33 30  1  6
 30 38  1  0
 34 31  1  1
 31 39  1  0
 35 32  1  1
 32 40  1  0
 41 43  1  0
 15 19  2  0
 42 43  2  0
 16 22  2  0
 12 17  1  6
 17 19  1  0
 17 20  1  0
 18 19  1  0
 18 22  1  0
 18 23  1  0
  9 10  1  0
  9 11  1  0
 10 12  1  0
 11  5  1  6
 33 34  1  0
 33 35  1  0
 34 36  1  0
 35 37  1  0
 37 43  1  6
 20 21  2  0
 21 22  1  0
M  CHG  3   2  -1  26  -1  41  -1
M  END
>  <COMPND>  (31) 
    udp_gluA.pdb 

>  <AUTHOR>  (31) 
    GENERATED BY OPEN BABEL 3.1.1

>  <MASTER>  (31) 
        0    0    0    0    0    0    0    0   56    0   56    0

>  <minimizedAffinity>  (31) 
-7.59076

>  <CNNscore>  (31) 
0.5029072165

>  <CNNaffinity>  (31) 
4.3682298660

>  <CNN_VS>  (31) 
2.1968142986

>  <CNNaffinity_variance>  (31) 
0.5065618753

$$$$
32
     RDKit          3D

 43 45  0  0  0  0  0  0  0  0999 V2000
   16.6481   72.9085   -2.5566 P   0  0  2  0  0  0  0  0  0  0  0  0
   15.3481   72.3569   -3.3470 O   0  0  0  0  0  0  0  0  0  0  0  0
   16.3479   73.8054   -1.3916 O   0  0  0  0  0  0  0  0  0  0  0  0
   17.5664   73.5539   -3.7220 O   0  0  0  0  0  0  0  0  0  0  0  0
   16.9757   73.8141   -4.9821 C   0  0  0  0  0  0  0  0  0  0  0  0
   18.6127   72.1746   -5.6222 O   0  0  0  0  0  0  0  0  0  0  0  0
   18.1545   73.0893   -8.4409 O   0  0  0  0  0  0  0  0  0  0  0  0
   16.6953   70.7890   -8.3163 O   0  0  0  0  0  0  0  0  0  0  0  0
   17.2207   72.9655   -7.3679 C   0  0  1  0  0  0  0  0  0  0  0  0
   16.9004   71.5070   -7.1175 C   0  0  2  0  0  0  0  0  0  0  0  0
   17.9297   73.3616   -6.0801 C   0  0  1  0  0  0  0  0  0  0  0  0
   18.1310   71.0396   -6.3592 C   0  0  2  0  0  0  0  0  0  0  0  0
   17.7243   72.8414   -9.2746 H   0  0  0  0  0  0  0  0  0  0  0  0
   15.9004   71.1236   -8.7615 H   0  0  0  0  0  0  0  0  0  0  0  0
   20.0756   69.6483   -4.8561 O   0  0  0  0  0  0  0  0  0  0  0  0
   16.8898   66.9787   -2.8641 O   0  0  0  0  0  0  0  0  0  0  0  0
   17.8374   69.9766   -5.4402 N   0  0  0  0  0  0  0  0  0  0  0  0
   18.4871   68.3193   -3.8662 N   0  0  0  0  0  0  0  0  0  0  0  0
   18.8877   69.3431   -4.7348 C   0  0  0  0  0  0  0  0  0  0  0  0
   16.5223   69.5729   -5.2439 C   0  0  0  0  0  0  0  0  0  0  0  0
   16.1560   68.5955   -4.4125 C   0  0  0  0  0  0  0  0  0  0  0  0
   17.1925   67.8819   -3.6379 C   0  0  0  0  0  0  0  0  0  0  0  0
   19.2010   67.8621   -3.3655 H   0  0  0  0  0  0  0  0  0  0  0  0
   17.4432   71.5536   -2.1759 O   0  0  0  0  0  0  0  0  0  0  0  0
   18.7397   71.3108   -1.2411 P   0  0  2  0  0  0  0  0  0  0  0  0
   18.9130   69.7015   -1.2599 O   0  0  0  0  0  0  0  0  0  0  0  0
   18.6278   71.9047    0.1332 O   0  0  0  0  0  0  0  0  0  0  0  0
   19.9807   71.8641   -2.1106 O   0  0  0  0  0  0  0  0  0  0  0  0
   22.2030   71.9541   -1.2966 O   0  0  0  0  0  0  0  0  0  0  0  0
   22.2961   74.7797   -4.3091 O   0  0  0  0  0  0  0  0  0  0  0  0
   20.0074   74.6179   -2.5008 O   0  0  0  0  0  0  0  0  0  0  0  0
   23.5113   72.1707   -4.7177 O   0  0  0  0  0  0  0  0  0  0  0  0
   21.8712   73.5823   -3.6582 C   0  0  2  0  0  0  0  0  0  0  0  0
   21.2380   73.9293   -2.3106 C   0  0  2  0  0  0  0  0  0  0  0  0
   23.0998   72.6927   -3.4557 C   0  0  1  0  0  0  0  0  0  0  0  0
   20.9804   72.6674   -1.4860 C   0  0  1  0  0  0  0  0  0  0  0  0
   22.7946   71.5256   -2.5212 C   0  0  1  0  0  0  0  0  0  0  0  0
   21.5318   75.3609   -4.4484 H   0  0  0  0  0  0  0  0  0  0  0  0
   20.1634   75.4196   -3.0236 H   0  0  0  0  0  0  0  0  0  0  0  0
   23.7085   72.9034   -5.3219 H   0  0  0  0  0  0  0  0  0  0  0  0
   24.7326   70.3525   -3.1290 O   0  0  0  0  0  0  0  0  0  0  0  0
   24.4335   70.7887   -0.9111 O   0  0  0  0  0  0  0  0  0  0  0  0
   24.0556   70.8629   -2.0707 C   0  0  0  0  0  0  0  0  0  0  0  0
  1  4  1  0
  1 24  1  0
  1  2  1  6
  1  3  2  0
 25 28  1  0
 25 24  1  0
 25 26  1  1
 25 27  2  0
  6 11  1  0
  6 12  1  0
 29 36  1  0
 29 37  1  0
  9  7  1  6
  7 13  1  0
 10  8  1  6
  8 14  1  0
  4  5  1  0
 36 28  1  6
 33 30  1  1
 30 38  1  0
 34 31  1  6
 31 39  1  0
 35 32  1  6
 32 40  1  0
 41 43  1  0
 15 19  2  0
 42 43  2  0
 16 22  2  0
 12 17  1  1
 17 19  1  0
 17 20  1  0
 18 19  1  0
 18 22  1  0
 18 23  1  0
  9 10  1  0
  9 11  1  0
 10 12  1  0
 11  5  1  1
 33 34  1  0
 33 35  1  0
 34 36  1  0
 35 37  1  0
 37 43  1  1
 20 21  2  0
 21 22  1  0
M  CHG  3   2  -1  26  -1  41  -1
M  END
>  <COMPND>  (32) 
    udp_gluA.pdb 

>  <AUTHOR>  (32) 
    GENERATED BY OPEN BABEL 3.1.1

>  <MASTER>  (32) 
        0    0    0    0    0    0    0    0   56    0   56    0

>  <minimizedAffinity>  (32) 
-7.58055

>  <CNNscore>  (32) 
0.4955224991

>  <CNNaffinity>  (32) 
4.2118635178

>  <CNN_VS>  (32) 
2.0870730877

>  <CNNaffinity_variance>  (32) 
0.6339045167

$$$$
33
     RDKit          3D

 43 45  0  0  0  0  0  0  0  0999 V2000
   21.9706   71.0988   -2.2314 P   0  0  2  0  0  0  0  0  0  0  0  0
   23.4997   70.8659   -2.7072 O   0  0  0  0  0  0  0  0  0  0  0  0
   21.6005   70.4316   -0.9393 O   0  0  0  0  0  0  0  0  0  0  0  0
   21.0928   70.6687   -3.5208 O   0  0  0  0  0  0  0  0  0  0  0  0
   20.3284   69.4790   -3.4520 C   0  0  0  0  0  0  0  0  0  0  0  0
   18.3711   70.6364   -4.2313 O   0  0  0  0  0  0  0  0  0  0  0  0
   16.8345   68.9811   -2.2590 O   0  0  0  0  0  0  0  0  0  0  0  0
   16.3504   67.7001   -4.6171 O   0  0  0  0  0  0  0  0  0  0  0  0
   17.9664   68.6225   -3.0519 C   0  0  1  0  0  0  0  0  0  0  0  0
   17.5545   68.4281   -4.4958 C   0  0  2  0  0  0  0  0  0  0  0  0
   18.8805   69.8368   -3.1421 C   0  0  1  0  0  0  0  0  0  0  0  0
   17.4228   69.8614   -4.9818 C   0  0  2  0  0  0  0  0  0  0  0  0
   16.2358   68.2208   -2.1870 H   0  0  0  0  0  0  0  0  0  0  0  0
   16.4861   66.7947   -4.2951 H   0  0  0  0  0  0  0  0  0  0  0  0
   15.9815   71.5149   -6.7609 O   0  0  0  0  0  0  0  0  0  0  0  0
   18.6298   70.2937  -10.3301 O   0  0  0  0  0  0  0  0  0  0  0  0
   17.7143   69.9945   -6.3812 N   0  0  0  0  0  0  0  0  0  0  0  0
   17.3012   70.9043   -8.5371 N   0  0  0  0  0  0  0  0  0  0  0  0
   16.9288   70.8519   -7.1874 C   0  0  0  0  0  0  0  0  0  0  0  0
   18.7681   69.2824   -6.9409 C   0  0  0  0  0  0  0  0  0  0  0  0
   19.1111   69.3427   -8.2291 C   0  0  0  0  0  0  0  0  0  0  0  0
   18.3407   70.2146   -9.1400 C   0  0  0  0  0  0  0  0  0  0  0  0
   16.7677   71.4930   -9.1186 H   0  0  0  0  0  0  0  0  0  0  0  0
   21.8353   72.7095   -2.2205 O   0  0  0  0  0  0  0  0  0  0  0  0
   20.5329   73.6648   -2.1497 P   0  0  2  0  0  0  0  0  0  0  0  0
   21.1665   75.1380   -1.9294 O   0  0  0  0  0  0  0  0  0  0  0  0
   19.5292   73.2613   -1.1087 O   0  0  0  0  0  0  0  0  0  0  0  0
   19.9606   73.6890   -3.6578 O   0  0  0  0  0  0  0  0  0  0  0  0
   21.7126   74.4760   -5.0434 O   0  0  0  0  0  0  0  0  0  0  0  0
   18.7178   73.7626   -7.7985 O   0  0  0  0  0  0  0  0  0  0  0  0
   18.1037   75.0275   -5.2377 O   0  0  0  0  0  0  0  0  0  0  0  0
   20.9519   71.9177   -7.5611 O   0  0  0  0  0  0  0  0  0  0  0  0
   19.4633   73.5502   -6.5997 C   0  0  2  0  0  0  0  0  0  0  0  0
   19.4181   74.8126   -5.7384 C   0  0  2  0  0  0  0  0  0  0  0  0
   20.9064   73.2247   -6.9916 C   0  0  1  0  0  0  0  0  0  0  0  0
   20.3884   74.7067   -4.5611 C   0  0  1  0  0  0  0  0  0  0  0  0
   21.8344   73.2617   -5.7808 C   0  0  1  0  0  0  0  0  0  0  0  0
   17.7972   73.9711   -7.5742 H   0  0  0  0  0  0  0  0  0  0  0  0
   17.4827   75.0954   -5.9795 H   0  0  0  0  0  0  0  0  0  0  0  0
   20.3653   71.8806   -8.3327 H   0  0  0  0  0  0  0  0  0  0  0  0
   23.3632   73.1326   -7.5550 O   0  0  0  0  0  0  0  0  0  0  0  0
   24.2220   73.3906   -5.4585 O   0  0  0  0  0  0  0  0  0  0  0  0
   23.2656   73.2716   -6.2096 C   0  0  0  0  0  0  0  0  0  0  0  0
  1  4  1  0
  1 24  1  0
  1  2  1  6
  1  3  2  0
 25 28  1  0
 25 24  1  0
 25 26  1  1
 25 27  2  0
  6 11  1  0
  6 12  1  0
 29 36  1  0
 29 37  1  0
  9  7  1  1
  7 13  1  0
 10  8  1  1
  8 14  1  0
  4  5  1  0
 36 28  1  1
 33 30  1  6
 30 38  1  0
 34 31  1  1
 31 39  1  0
 35 32  1  1
 32 40  1  0
 41 43  1  0
 15 19  2  0
 42 43  2  0
 16 22  2  0
 12 17  1  6
 17 19  1  0
 17 20  1  0
 18 19  1  0
 18 22  1  0
 18 23  1  0
  9 10  1  0
  9 11  1  0
 10 12  1  0
 11  5  1  6
 33 34  1  0
 33 35  1  0
 34 36  1  0
 35 37  1  0
 37 43  1  6
 20 21  2  0
 21 22  1  0
M  CHG  3   2  -1  26  -1  41  -1
M  END
>  <COMPND>  (33) 
    udp_gluA.pdb 

>  <AUTHOR>  (33) 
    GENERATED BY OPEN BABEL 3.1.1

>  <MASTER>  (33) 
        0    0    0    0    0    0    0    0   56    0   56    0

>  <minimizedAffinity>  (33) 
-7.77466

>  <CNNscore>  (33) 
0.4667694271

>  <CNNaffinity>  (33) 
4.2222127914

>  <CNN_VS>  (33) 
1.9707998037

>  <CNNaffinity_variance>  (33) 
0.7885504365

$$$$
34
     RDKit          3D

 43 45  0  0  0  0  0  0  0  0999 V2000
   20.1006   70.5832   -1.7976 P   0  0  2  0  0  0  0  0  0  0  0  0
   19.5610   69.4336   -0.7946 O   0  0  0  0  0  0  0  0  0  0  0  0
   19.3650   71.8888   -1.7192 O   0  0  0  0  0  0  0  0  0  0  0  0
   20.1033   69.8642   -3.2471 O   0  0  0  0  0  0  0  0  0  0  0  0
   20.1039   70.6781   -4.4055 C   0  0  0  0  0  0  0  0  0  0  0  0
   18.4950   68.9960   -5.0052 O   0  0  0  0  0  0  0  0  0  0  0  0
   18.6468   70.1069   -7.7862 O   0  0  0  0  0  0  0  0  0  0  0  0
   16.3381   71.2009   -6.8328 O   0  0  0  0  0  0  0  0  0  0  0  0
   18.7162   70.7909   -6.5349 C   0  0  1  0  0  0  0  0  0  0  0  0
   17.3435   70.8632   -5.9002 C   0  0  2  0  0  0  0  0  0  0  0  0
   19.4735   69.9040   -5.5560 C   0  0  1  0  0  0  0  0  0  0  0  0
   17.1783   69.4587   -5.3452 C   0  0  2  0  0  0  0  0  0  0  0  0
   18.1672   70.6543   -8.4281 H   0  0  0  0  0  0  0  0  0  0  0  0
   16.4873   72.1037   -7.1563 H   0  0  0  0  0  0  0  0  0  0  0  0
   15.8649   67.1524   -4.3796 O   0  0  0  0  0  0  0  0  0  0  0  0
   14.0428   69.4549   -0.8268 O   0  0  0  0  0  0  0  0  0  0  0  0
   16.3544   69.4273   -4.1701 N   0  0  0  0  0  0  0  0  0  0  0  0
   14.9578   68.3016   -2.6116 N   0  0  0  0  0  0  0  0  0  0  0  0
   15.7397   68.2168   -3.7712 C   0  0  0  0  0  0  0  0  0  0  0  0
   16.1635   70.5850   -3.4257 C   0  0  0  0  0  0  0  0  0  0  0  0
   15.4155   70.6502   -2.3225 C   0  0  0  0  0  0  0  0  0  0  0  0
   14.7376   69.4298   -1.8382 C   0  0  0  0  0  0  0  0  0  0  0  0
   14.5180   67.4720   -2.3154 H   0  0  0  0  0  0  0  0  0  0  0  0
   21.6730   70.6733   -1.4338 O   0  0  0  0  0  0  0  0  0  0  0  0
   22.7028   71.9188   -1.4771 P   0  0  2  0  0  0  0  0  0  0  0  0
   24.1532   71.2003   -1.4580 O   0  0  0  0  0  0  0  0  0  0  0  0
   22.4972   72.9262   -0.3831 O   0  0  0  0  0  0  0  0  0  0  0  0
   22.5628   72.5138   -2.9701 O   0  0  0  0  0  0  0  0  0  0  0  0
   23.6822   74.0861   -4.3427 O   0  0  0  0  0  0  0  0  0  0  0  0
   19.7251   75.1047   -4.9526 O   0  0  0  0  0  0  0  0  0  0  0  0
   20.6895   74.4483   -2.2742 O   0  0  0  0  0  0  0  0  0  0  0  0
   21.1860   73.6390   -6.9943 O   0  0  0  0  0  0  0  0  0  0  0  0
   20.8186   74.2262   -4.6867 C   0  0  2  0  0  0  0  0  0  0  0  0
   21.5267   74.6641   -3.4043 C   0  0  2  0  0  0  0  0  0  0  0  0
   21.7799   74.2945   -5.8754 C   0  0  1  0  0  0  0  0  0  0  0  0
   22.8334   73.8936   -3.2105 C   0  0  1  0  0  0  0  0  0  0  0  0
   23.1073   73.6119   -5.5583 C   0  0  1  0  0  0  0  0  0  0  0  0
   19.1008   75.0780   -4.2104 H   0  0  0  0  0  0  0  0  0  0  0  0
   19.8583   74.9342   -2.3906 H   0  0  0  0  0  0  0  0  0  0  0  0
   20.3402   74.0638   -7.2064 H   0  0  0  0  0  0  0  0  0  0  0  0
   23.9431   73.2625   -7.7218 O   0  0  0  0  0  0  0  0  0  0  0  0
   25.0431   74.7711   -6.4129 O   0  0  0  0  0  0  0  0  0  0  0  0
   24.1414   73.9632   -6.5779 C   0  0  0  0  0  0  0  0  0  0  0  0
  1  4  1  0
  1 24  1  0
  1  2  1  1
  1  3  2  0
 25 28  1  0
 25 24  1  0
 25 26  1  6
 25 27  2  0
  6 11  1  0
  6 12  1  0
 29 36  1  0
 29 37  1  0
  9  7  1  6
  7 13  1  0
 10  8  1  6
  8 14  1  0
  4  5  1  0
 36 28  1  6
 33 30  1  6
 30 38  1  0
 34 31  1  1
 31 39  1  0
 35 32  1  6
 32 40  1  0
 41 43  1  0
 15 19  2  0
 42 43  2  0
 16 22  2  0
 12 17  1  1
 17 19  1  0
 17 20  1  0
 18 19  1  0
 18 22  1  0
 18 23  1  0
  9 10  1  0
  9 11  1  0
 10 12  1  0
 11  5  1  1
 33 34  1  0
 33 35  1  0
 34 36  1  0
 35 37  1  0
 37 43  1  6
 20 21  2  0
 21 22  1  0
M  CHG  3   2  -1  26  -1  41  -1
M  END
>  <COMPND>  (34) 
    udp_gluA.pdb 

>  <AUTHOR>  (34) 
    GENERATED BY OPEN BABEL 3.1.1

>  <MASTER>  (34) 
        0    0    0    0    0    0    0    0   56    0   56    0

>  <minimizedAffinity>  (34) 
-6.91477

>  <CNNscore>  (34) 
0.4587010145

>  <CNNaffinity>  (34) 
4.1453094482

>  <CNN_VS>  (34) 
1.9014576674

>  <CNNaffinity_variance>  (34) 
0.3029352129

$$$$
35
     RDKit          3D

 43 45  0  0  0  0  0  0  0  0999 V2000
   18.8360   70.1780   -1.9977 P   0  0  2  0  0  0  0  0  0  0  0  0
   17.8999   69.0020   -1.3979 O   0  0  0  0  0  0  0  0  0  0  0  0
   20.0823   69.7060   -2.6874 O   0  0  0  0  0  0  0  0  0  0  0  0
   19.0618   71.1732   -0.7421 O   0  0  0  0  0  0  0  0  0  0  0  0
   18.1512   72.2407   -0.5532 C   0  0  0  0  0  0  0  0  0  0  0  0
   20.2736   73.0438    0.2393 O   0  0  0  0  0  0  0  0  0  0  0  0
   19.0844   75.7917    0.0775 O   0  0  0  0  0  0  0  0  0  0  0  0
   20.5940   75.6613   -2.1897 O   0  0  0  0  0  0  0  0  0  0  0  0
   18.8813   74.6673   -0.7787 C   0  0  1  0  0  0  0  0  0  0  0  0
   20.0951   74.4519   -1.6577 C   0  0  2  0  0  0  0  0  0  0  0  0
   18.8862   73.4129    0.0842 C   0  0  1  0  0  0  0  0  0  0  0  0
   21.0677   73.7908   -0.6960 C   0  0  2  0  0  0  0  0  0  0  0  0
   19.0852   76.6053   -0.4514 H   0  0  0  0  0  0  0  0  0  0  0  0
   19.9387   76.0427   -2.7956 H   0  0  0  0  0  0  0  0  0  0  0  0
   23.1076   72.3311    0.6018 O   0  0  0  0  0  0  0  0  0  0  0  0
   24.4784   70.3856   -3.3453 O   0  0  0  0  0  0  0  0  0  0  0  0
   21.9720   72.8955   -1.3604 N   0  0  0  0  0  0  0  0  0  0  0  0
   23.7890   71.3643   -1.3655 N   0  0  0  0  0  0  0  0  0  0  0  0
   22.9615   72.2107   -0.6160 C   0  0  0  0  0  0  0  0  0  0  0  0
   21.8729   72.7018   -2.7329 C   0  0  0  0  0  0  0  0  0  0  0  0
   22.6689   71.8916   -3.4334 C   0  0  0  0  0  0  0  0  0  0  0  0
   23.7295   71.1395   -2.7313 C   0  0  0  0  0  0  0  0  0  0  0  0
   24.4869   70.8783   -0.8693 H   0  0  0  0  0  0  0  0  0  0  0  0
   17.8178   71.0073   -2.9401 O   0  0  0  0  0  0  0  0  0  0  0  0
   16.6668   70.5056   -3.9586 P   0  0  2  0  0  0  0  0  0  0  0  0
   15.3936   71.4216   -3.5581 O   0  0  0  0  0  0  0  0  0  0  0  0
   16.4047   69.0281   -3.9120 O   0  0  0  0  0  0  0  0  0  0  0  0
   17.1282   71.0585   -5.4021 O   0  0  0  0  0  0  0  0  0  0  0  0
   18.8341   70.3336   -6.8764 O   0  0  0  0  0  0  0  0  0  0  0  0
   18.8565   74.4164   -7.5075 O   0  0  0  0  0  0  0  0  0  0  0  0
   18.6069   73.3371   -4.8043 O   0  0  0  0  0  0  0  0  0  0  0  0
   17.6551   72.6427   -9.4726 O   0  0  0  0  0  0  0  0  0  0  0  0
   18.2770   73.1484   -7.2005 C   0  0  2  0  0  0  0  0  0  0  0  0
   18.9450   72.5689   -5.9533 C   0  0  2  0  0  0  0  0  0  0  0  0
   18.4977   72.2246   -8.4004 C   0  0  1  0  0  0  0  0  0  0  0  0
   18.5159   71.1186   -5.7267 C   0  0  1  0  0  0  0  0  0  0  0  0
   18.1661   70.7754   -8.0561 C   0  0  1  0  0  0  0  0  0  0  0  0
   18.7285   75.0203   -6.7590 H   0  0  0  0  0  0  0  0  0  0  0  0
   18.8761   74.2586   -4.9413 H   0  0  0  0  0  0  0  0  0  0  0  0
   17.8559   73.5637   -9.7014 H   0  0  0  0  0  0  0  0  0  0  0  0
   19.5361   68.9398   -8.5612 O   0  0  0  0  0  0  0  0  0  0  0  0
   18.3959   69.8936  -10.2902 O   0  0  0  0  0  0  0  0  0  0  0  0
   18.6886   69.8482   -9.1047 C   0  0  0  0  0  0  0  0  0  0  0  0
  1  4  1  0
  1 24  1  0
  1  2  1  1
  1  3  2  0
 25 28  1  0
 25 24  1  0
 25 26  1  1
 25 27  2  0
  6 11  1  0
  6 12  1  0
 29 36  1  0
 29 37  1  0
  9  7  1  1
  7 13  1  0
 10  8  1  1
  8 14  1  0
  4  5  1  0
 36 28  1  6
 33 30  1  6
 30 38  1  0
 34 31  1  1
 31 39  1  0
 35 32  1  6
 32 40  1  0
 41 43  1  0
 15 19  2  0
 42 43  2  0
 16 22  2  0
 12 17  1  6
 17 19  1  0
 17 20  1  0
 18 19  1  0
 18 22  1  0
 18 23  1  0
  9 10  1  0
  9 11  1  0
 10 12  1  0
 11  5  1  6
 33 34  1  0
 33 35  1  0
 34 36  1  0
 35 37  1  0
 37 43  1  6
 20 21  2  0
 21 22  1  0
M  CHG  3   2  -1  26  -1  41  -1
M  END
>  <COMPND>  (35) 
    udp_gluA.pdb 

>  <AUTHOR>  (35) 
    GENERATED BY OPEN BABEL 3.1.1

>  <MASTER>  (35) 
        0    0    0    0    0    0    0    0   56    0   56    0

>  <minimizedAffinity>  (35) 
-7.84929

>  <CNNscore>  (35) 
0.3898442686

>  <CNNaffinity>  (35) 
4.0850710869

>  <CNN_VS>  (35) 
1.5925415754

>  <CNNaffinity_variance>  (35) 
0.3283025324

$$$$
36
     RDKit          3D

 43 45  0  0  0  0  0  0  0  0999 V2000
   22.9976   71.7321   -3.5745 P   0  0  2  0  0  0  0  0  0  0  0  0
   23.6204   72.5219   -4.8423 O   0  0  0  0  0  0  0  0  0  0  0  0
   23.8004   70.5545   -3.1050 O   0  0  0  0  0  0  0  0  0  0  0  0
   21.4772   71.4112   -4.0254 O   0  0  0  0  0  0  0  0  0  0  0  0
   20.9086   70.1699   -3.6508 C   0  0  0  0  0  0  0  0  0  0  0  0
   18.7740   71.0435   -4.3274 O   0  0  0  0  0  0  0  0  0  0  0  0
   17.6056   69.3943   -2.1123 O   0  0  0  0  0  0  0  0  0  0  0  0
   17.0777   67.8849   -4.3211 O   0  0  0  0  0  0  0  0  0  0  0  0
   18.7016   69.0980   -2.9781 C   0  0  1  0  0  0  0  0  0  0  0  0
   18.1965   68.7460   -4.3613 C   0  0  2  0  0  0  0  0  0  0  0  0
   19.4600   70.3929   -3.2359 C   0  0  1  0  0  0  0  0  0  0  0  0
   17.8617   70.1134   -4.9323 C   0  0  2  0  0  0  0  0  0  0  0  0
   17.1059   68.5820   -1.9331 H   0  0  0  0  0  0  0  0  0  0  0  0
   17.3425   67.0280   -3.9503 H   0  0  0  0  0  0  0  0  0  0  0  0
   15.9953   71.2809   -6.7015 O   0  0  0  0  0  0  0  0  0  0  0  0
   18.5696   70.2550  -10.3845 O   0  0  0  0  0  0  0  0  0  0  0  0
   18.0192   70.1652   -6.3583 N   0  0  0  0  0  0  0  0  0  0  0  0
   17.2788   70.7679   -8.5342 N   0  0  0  0  0  0  0  0  0  0  0  0
   17.0226   70.7745   -7.1568 C   0  0  0  0  0  0  0  0  0  0  0  0
   19.1507   69.6186   -6.9514 C   0  0  0  0  0  0  0  0  0  0  0  0
   19.3810   69.6200   -8.2659 C   0  0  0  0  0  0  0  0  0  0  0  0
   18.3886   70.2362   -9.1708 C   0  0  0  0  0  0  0  0  0  0  0  0
   16.5981   71.1846   -9.1108 H   0  0  0  0  0  0  0  0  0  0  0  0
   22.8112   72.9016   -2.4743 O   0  0  0  0  0  0  0  0  0  0  0  0
   22.7535   72.8407   -0.8598 P   0  0  2  0  0  0  0  0  0  0  0  0
   23.7133   74.0638   -0.4090 O   0  0  0  0  0  0  0  0  0  0  0  0
   23.1346   71.5094   -0.2798 O   0  0  0  0  0  0  0  0  0  0  0  0
   21.2636   73.3327   -0.4847 O   0  0  0  0  0  0  0  0  0  0  0  0
   19.4167   73.7867   -1.8961 O   0  0  0  0  0  0  0  0  0  0  0  0
   18.8047   76.4753    1.1804 O   0  0  0  0  0  0  0  0  0  0  0  0
   21.4857   76.0420    0.1038 O   0  0  0  0  0  0  0  0  0  0  0  0
   17.1898   74.0644    1.0067 O   0  0  0  0  0  0  0  0  0  0  0  0
   19.2422   75.2538    0.5849 C   0  0  2  0  0  0  0  0  0  0  0  0
   20.2879   75.5539   -0.4893 C   0  0  2  0  0  0  0  0  0  0  0  0
   18.0234   74.5673   -0.0357 C   0  0  1  0  0  0  0  0  0  0  0  0
   20.6104   74.3005   -1.3041 C   0  0  1  0  0  0  0  0  0  0  0  0
   18.4362   73.4047   -0.9338 C   0  0  1  0  0  0  0  0  0  0  0  0
   19.5626   76.9294    1.5814 H   0  0  0  0  0  0  0  0  0  0  0  0
   21.2884   76.8372    0.6226 H   0  0  0  0  0  0  0  0  0  0  0  0
   16.9201   74.7944    1.5857 H   0  0  0  0  0  0  0  0  0  0  0  0
   17.2696   73.6358   -2.9555 O   0  0  0  0  0  0  0  0  0  0  0  0
   16.4812   72.0963   -1.4698 O   0  0  0  0  0  0  0  0  0  0  0  0
   17.2906   72.9568   -1.7819 C   0  0  0  0  0  0  0  0  0  0  0  0
  1  4  1  0
  1 24  1  0
  1  2  1  6
  1  3  2  0
 25 28  1  0
 25 24  1  0
 25 26  1  1
 25 27  2  0
  6 11  1  0
  6 12  1  0
 29 36  1  0
 29 37  1  0
  9  7  1  1
  7 13  1  0
 10  8  1  1
  8 14  1  0
  4  5  1  0
 36 28  1  1
 33 30  1  6
 30 38  1  0
 34 31  1  1
 31 39  1  0
 35 32  1  1
 32 40  1  0
 41 43  1  0
 15 19  2  0
 42 43  2  0
 16 22  2  0
 12 17  1  6
 17 19  1  0
 17 20  1  0
 18 19  1  0
 18 22  1  0
 18 23  1  0
  9 10  1  0
  9 11  1  0
 10 12  1  0
 11  5  1  6
 33 34  1  0
 33 35  1  0
 34 36  1  0
 35 37  1  0
 37 43  1  6
 20 21  2  0
 21 22  1  0
M  CHG  3   2  -1  26  -1  41  -1
M  END
>  <COMPND>  (36) 
    udp_gluA.pdb 

>  <AUTHOR>  (36) 
    GENERATED BY OPEN BABEL 3.1.1

>  <MASTER>  (36) 
        0    0    0    0    0    0    0    0   56    0   56    0

>  <minimizedAffinity>  (36) 
-7.53550

>  <CNNscore>  (36) 
0.3719933331

>  <CNNaffinity>  (36) 
4.2506833076

>  <CNN_VS>  (36) 
1.5812258720

>  <CNNaffinity_variance>  (36) 
0.1552850902

$$$$
37
     RDKit          3D

 43 45  0  0  0  0  0  0  0  0999 V2000
   20.1756   74.0620   -6.3910 P   0  0  2  0  0  0  0  0  0  0  0  0
   19.5559   73.9838   -4.8981 O   0  0  0  0  0  0  0  0  0  0  0  0
   20.0478   75.3988   -7.0607 O   0  0  0  0  0  0  0  0  0  0  0  0
   19.4845   72.8199   -7.1641 O   0  0  0  0  0  0  0  0  0  0  0  0
   20.1405   71.5654   -7.1499 C   0  0  0  0  0  0  0  0  0  0  0  0
   18.9373   69.4850   -7.1971 O   0  0  0  0  0  0  0  0  0  0  0  0
   17.7537   70.4423   -9.7806 O   0  0  0  0  0  0  0  0  0  0  0  0
   15.7546   70.9316   -7.9917 O   0  0  0  0  0  0  0  0  0  0  0  0
   18.0920   71.1874   -8.6106 C   0  0  1  0  0  0  0  0  0  0  0  0
   17.0831   70.9257   -7.5125 C   0  0  2  0  0  0  0  0  0  0  0  0
   19.3635   70.5894   -8.0241 C   0  0  1  0  0  0  0  0  0  0  0  0
   17.5158   69.5606   -7.0055 C   0  0  2  0  0  0  0  0  0  0  0  0
   16.9442   70.8059  -10.1731 H   0  0  0  0  0  0  0  0  0  0  0  0
   15.5270   71.8224   -8.3026 H   0  0  0  0  0  0  0  0  0  0  0  0
   17.2326   71.6633   -5.1413 O   0  0  0  0  0  0  0  0  0  0  0  0
   16.3880   68.7313   -1.6868 O   0  0  0  0  0  0  0  0  0  0  0  0
   17.2219   69.3750   -5.6126 N   0  0  0  0  0  0  0  0  0  0  0  0
   16.8132   70.2010   -3.4224 N   0  0  0  0  0  0  0  0  0  0  0  0
   17.1004   70.4985   -4.7611 C   0  0  0  0  0  0  0  0  0  0  0  0
   17.0557   68.0927   -5.1037 C   0  0  0  0  0  0  0  0  0  0  0  0
   16.7822   67.8249   -3.8253 C   0  0  0  0  0  0  0  0  0  0  0  0
   16.6399   68.9425   -2.8693 C   0  0  0  0  0  0  0  0  0  0  0  0
   16.7260   70.9669   -2.8099 H   0  0  0  0  0  0  0  0  0  0  0  0
   21.6966   73.5574   -6.1795 O   0  0  0  0  0  0  0  0  0  0  0  0
   22.5193   73.2009   -4.8342 P   0  0  2  0  0  0  0  0  0  0  0  0
   22.4256   74.5668   -3.9706 O   0  0  0  0  0  0  0  0  0  0  0  0
   23.9198   72.7186   -5.0785 O   0  0  0  0  0  0  0  0  0  0  0  0
   21.5790   72.1546   -4.0446 O   0  0  0  0  0  0  0  0  0  0  0  0
   22.8050   71.7662   -2.0559 O   0  0  0  0  0  0  0  0  0  0  0  0
   19.2445   69.8364   -1.2390 O   0  0  0  0  0  0  0  0  0  0  0  0
   20.4848   69.6032   -3.8738 O   0  0  0  0  0  0  0  0  0  0  0  0
   19.8219   72.4113   -0.0194 O   0  0  0  0  0  0  0  0  0  0  0  0
   20.0817   70.8347   -1.8226 C   0  0  2  0  0  0  0  0  0  0  0  0
   21.1158   70.1685   -2.7306 C   0  0  2  0  0  0  0  0  0  0  0  0
   20.7775   71.5905   -0.6884 C   0  0  1  0  0  0  0  0  0  0  0  0
   22.1698   71.1765   -3.1909 C   0  0  1  0  0  0  0  0  0  0  0  0
   21.8990   72.4799   -1.2175 C   0  0  1  0  0  0  0  0  0  0  0  0
   18.7919   69.3429   -1.9411 H   0  0  0  0  0  0  0  0  0  0  0  0
   19.8145   68.9629   -3.5891 H   0  0  0  0  0  0  0  0  0  0  0  0
   19.1026   71.8573    0.3221 H   0  0  0  0  0  0  0  0  0  0  0  0
   23.6907   73.8409   -0.5550 O   0  0  0  0  0  0  0  0  0  0  0  0
   22.6819   72.5893    1.0621 O   0  0  0  0  0  0  0  0  0  0  0  0
   22.7741   72.9502   -0.1016 C   0  0  0  0  0  0  0  0  0  0  0  0
  1  4  1  0
  1 24  1  0
  1  2  1  1
  1  3  2  0
 25 28  1  0
 25 24  1  0
 25 26  1  1
 25 27  2  0
  6 11  1  0
  6 12  1  0
 29 36  1  0
 29 37  1  0
  9  7  1  6
  7 13  1  0
 10  8  1  6
  8 14  1  0
  4  5  1  0
 36 28  1  1
 33 30  1  1
 30 38  1  0
 34 31  1  6
 31 39  1  0
 35 32  1  6
 32 40  1  0
 41 43  1  0
 15 19  2  0
 42 43  2  0
 16 22  2  0
 12 17  1  1
 17 19  1  0
 17 20  1  0
 18 19  1  0
 18 22  1  0
 18 23  1  0
  9 10  1  0
  9 11  1  0
 10 12  1  0
 11  5  1  1
 33 34  1  0
 33 35  1  0
 34 36  1  0
 35 37  1  0
 37 43  1  1
 20 21  2  0
 21 22  1  0
M  CHG  3   2  -1  26  -1  41  -1
M  END
>  <COMPND>  (37) 
    udp_gluA.pdb 

>  <AUTHOR>  (37) 
    GENERATED BY OPEN BABEL 3.1.1

>  <MASTER>  (37) 
        0    0    0    0    0    0    0    0   56    0   56    0

>  <minimizedAffinity>  (37) 
-7.94783

>  <CNNscore>  (37) 
0.3646799326

>  <CNNaffinity>  (37) 
4.0198550224

>  <CNN_VS>  (37) 
1.4659605026

>  <CNNaffinity_variance>  (37) 
0.6554724574

$$$$
38
     RDKit          3D

 43 45  0  0  0  0  0  0  0  0999 V2000
   18.2750   71.1459   -2.0705 P   0  0  2  0  0  0  0  0  0  0  0  0
   16.8071   71.8273   -2.0674 O   0  0  0  0  0  0  0  0  0  0  0  0
   18.4358   69.9835   -1.1352 O   0  0  0  0  0  0  0  0  0  0  0  0
   19.2810   72.3892   -1.8255 O   0  0  0  0  0  0  0  0  0  0  0  0
   19.6963   72.6722   -0.5019 C   0  0  0  0  0  0  0  0  0  0  0  0
   21.6619   71.8119   -1.5854 O   0  0  0  0  0  0  0  0  0  0  0  0
   23.0951   72.3597    0.9910 O   0  0  0  0  0  0  0  0  0  0  0  0
   23.8293   74.4780   -0.5614 O   0  0  0  0  0  0  0  0  0  0  0  0
   22.0500   73.1024    0.3627 C   0  0  1  0  0  0  0  0  0  0  0  0
   22.5898   73.8580   -0.8331 C   0  0  2  0  0  0  0  0  0  0  0  0
   21.0966   72.1112   -0.2907 C   0  0  1  0  0  0  0  0  0  0  0  0
   22.7017   72.7593   -1.8762 C   0  0  2  0  0  0  0  0  0  0  0  0
   23.7170   72.9718    1.4155 H   0  0  0  0  0  0  0  0  0  0  0  0
   23.7050   75.1696    0.1080 H   0  0  0  0  0  0  0  0  0  0  0  0
   23.8816   71.6099   -4.1704 O   0  0  0  0  0  0  0  0  0  0  0  0
   21.9494   74.7347   -6.9535 O   0  0  0  0  0  0  0  0  0  0  0  0
   22.5237   73.2523   -3.2127 N   0  0  0  0  0  0  0  0  0  0  0  0
   22.9189   73.1679   -5.5543 N   0  0  0  0  0  0  0  0  0  0  0  0
   23.1611   72.6019   -4.2957 C   0  0  0  0  0  0  0  0  0  0  0  0
   21.7246   74.3661   -3.4404 C   0  0  0  0  0  0  0  0  0  0  0  0
   21.5031   74.8939   -4.6458 C   0  0  0  0  0  0  0  0  0  0  0  0
   22.1327   74.2748   -5.8306 C   0  0  0  0  0  0  0  0  0  0  0  0
   23.3537   72.7337   -6.3235 H   0  0  0  0  0  0  0  0  0  0  0  0
   18.5075   70.7922   -3.6305 O   0  0  0  0  0  0  0  0  0  0  0  0
   19.4954   69.7283   -4.3418 P   0  0  2  0  0  0  0  0  0  0  0  0
   18.7006   68.3263   -4.1893 O   0  0  0  0  0  0  0  0  0  0  0  0
   20.8889   69.7131   -3.7833 O   0  0  0  0  0  0  0  0  0  0  0  0
   19.4082   70.0768   -5.9145 O   0  0  0  0  0  0  0  0  0  0  0  0
   17.1197   70.2300   -6.5047 O   0  0  0  0  0  0  0  0  0  0  0  0
   18.9725   70.9806  -10.1202 O   0  0  0  0  0  0  0  0  0  0  0  0
   19.9625   68.8708   -8.3588 O   0  0  0  0  0  0  0  0  0  0  0  0
   17.7951   73.1631   -8.6031 O   0  0  0  0  0  0  0  0  0  0  0  0
   18.8349   70.9918   -8.6994 C   0  0  2  0  0  0  0  0  0  0  0  0
   18.7279   69.5562   -8.1843 C   0  0  2  0  0  0  0  0  0  0  0  0
   17.5680   71.7773   -8.3531 C   0  0  1  0  0  0  0  0  0  0  0  0
   18.3506   69.5334   -6.7024 C   0  0  1  0  0  0  0  0  0  0  0  0
   17.1877   71.6024   -6.8856 C   0  0  1  0  0  0  0  0  0  0  0  0
   19.7711   70.4867  -10.3641 H   0  0  0  0  0  0  0  0  0  0  0  0
   20.2082   68.8817   -9.2968 H   0  0  0  0  0  0  0  0  0  0  0  0
   18.0381   73.2881   -9.5338 H   0  0  0  0  0  0  0  0  0  0  0  0
   15.0954   72.1469   -7.7952 O   0  0  0  0  0  0  0  0  0  0  0  0
   15.3460   72.3928   -5.5422 O   0  0  0  0  0  0  0  0  0  0  0  0
   15.7973   72.0890   -6.6363 C   0  0  0  0  0  0  0  0  0  0  0  0
  1  4  1  0
  1 24  1  0
  1  2  1  6
  1  3  2  0
 25 28  1  0
 25 24  1  0
 25 26  1  6
 25 27  2  0
  6 11  1  0
  6 12  1  0
 29 36  1  0
 29 37  1  0
  9  7  1  6
  7 13  1  0
 10  8  1  1
  8 14  1  0
  4  5  1  0
 36 28  1  1
 33 30  1  6
 30 38  1  0
 34 31  1  1
 31 39  1  0
 35 32  1  1
 32 40  1  0
 41 43  1  0
 15 19  2  0
 42 43  2  0
 16 22  2  0
 12 17  1  6
 17 19  1  0
 17 20  1  0
 18 19  1  0
 18 22  1  0
 18 23  1  0
  9 10  1  0
  9 11  1  0
 10 12  1  0
 11  5  1  6
 33 34  1  0
 33 35  1  0
 34 36  1  0
 35 37  1  0
 37 43  1  6
 20 21  2  0
 21 22  1  0
M  CHG  3   2  -1  26  -1  41  -1
M  END
>  <COMPND>  (38) 
    udp_gluA.pdb 

>  <AUTHOR>  (38) 
    GENERATED BY OPEN BABEL 3.1.1

>  <MASTER>  (38) 
        0    0    0    0    0    0    0    0   56    0   56    0

>  <minimizedAffinity>  (38) 
-7.96746

>  <CNNscore>  (38) 
0.3517737687

>  <CNNaffinity>  (38) 
4.1414856911

>  <CNN_VS>  (38) 
1.4568660259

>  <CNNaffinity_variance>  (38) 
0.3009498119

$$$$
39
     RDKit          3D

 43 45  0  0  0  0  0  0  0  0999 V2000
   23.0709   71.7246   -3.6461 P   0  0  2  0  0  0  0  0  0  0  0  0
   23.6516   72.5949   -4.8807 O   0  0  0  0  0  0  0  0  0  0  0  0
   23.8978   70.5308   -3.2682 O   0  0  0  0  0  0  0  0  0  0  0  0
   21.5423   71.4131   -4.0754 O   0  0  0  0  0  0  0  0  0  0  0  0
   20.9752   70.1706   -3.7027 C   0  0  0  0  0  0  0  0  0  0  0  0
   18.8181   71.0326   -4.3206 O   0  0  0  0  0  0  0  0  0  0  0  0
   17.7258   69.4131   -2.0456 O   0  0  0  0  0  0  0  0  0  0  0  0
   17.1276   67.8726   -4.2147 O   0  0  0  0  0  0  0  0  0  0  0  0
   18.7931   69.1059   -2.9429 C   0  0  1  0  0  0  0  0  0  0  0  0
   18.2432   68.7342   -4.3036 C   0  0  2  0  0  0  0  0  0  0  0  0
   19.5407   70.3978   -3.2434 C   0  0  1  0  0  0  0  0  0  0  0  0
   17.8878   70.0932   -4.8822 C   0  0  2  0  0  0  0  0  0  0  0  0
   17.2335   68.6029   -1.8388 H   0  0  0  0  0  0  0  0  0  0  0  0
   17.4057   67.0212   -3.8410 H   0  0  0  0  0  0  0  0  0  0  0  0
   16.0039   71.3082   -6.6000 O   0  0  0  0  0  0  0  0  0  0  0  0
   18.4133   70.1559  -10.3564 O   0  0  0  0  0  0  0  0  0  0  0  0
   17.9981   70.1254   -6.3131 N   0  0  0  0  0  0  0  0  0  0  0  0
   17.2052   70.7323   -8.4693 N   0  0  0  0  0  0  0  0  0  0  0  0
   16.9967   70.7615   -7.0842 C   0  0  0  0  0  0  0  0  0  0  0  0
   19.0889   69.5334   -6.9382 C   0  0  0  0  0  0  0  0  0  0  0  0
   19.2740   69.5137   -8.2596 C   0  0  0  0  0  0  0  0  0  0  0  0
   18.2734   70.1555   -9.1372 C   0  0  0  0  0  0  0  0  0  0  0  0
   16.5202   71.1670   -9.0271 H   0  0  0  0  0  0  0  0  0  0  0  0
   22.9021   72.8250   -2.4741 O   0  0  0  0  0  0  0  0  0  0  0  0
   22.4137   72.6756   -0.9402 P   0  0  2  0  0  0  0  0  0  0  0  0
   23.1733   73.8924   -0.1900 O   0  0  0  0  0  0  0  0  0  0  0  0
   22.6706   71.3232   -0.3411 O   0  0  0  0  0  0  0  0  0  0  0  0
   20.8617   73.1152   -0.9602 O   0  0  0  0  0  0  0  0  0  0  0  0
   20.1207   74.7181    0.6181 O   0  0  0  0  0  0  0  0  0  0  0  0
   16.5449   73.1346   -0.7141 O   0  0  0  0  0  0  0  0  0  0  0  0
   18.8259   71.3916   -0.1722 O   0  0  0  0  0  0  0  0  0  0  0  0
   17.4073   75.7582   -1.6220 O   0  0  0  0  0  0  0  0  0  0  0  0
   17.9089   73.5427   -0.8189 C   0  0  2  0  0  0  0  0  0  0  0  0
   18.7546   72.7657    0.1904 C   0  0  2  0  0  0  0  0  0  0  0  0
   17.9774   75.0434   -0.5272 C   0  0  1  0  0  0  0  0  0  0  0  0
   20.1721   73.3342    0.2692 C   0  0  1  0  0  0  0  0  0  0  0  0
   19.4182   75.5090   -0.3380 C   0  0  1  0  0  0  0  0  0  0  0  0
   16.4768   72.1840   -0.8954 H   0  0  0  0  0  0  0  0  0  0  0  0
   17.9298   71.0245   -0.2243 H   0  0  0  0  0  0  0  0  0  0  0  0
   16.4901   75.4710   -1.7532 H   0  0  0  0  0  0  0  0  0  0  0  0
   20.5145   76.9974    1.1057 O   0  0  0  0  0  0  0  0  0  0  0  0
   18.6581   77.7691    0.0300 O   0  0  0  0  0  0  0  0  0  0  0  0
   19.4592   76.8764    0.2627 C   0  0  0  0  0  0  0  0  0  0  0  0
  1  4  1  0
  1 24  1  0
  1  2  1  6
  1  3  2  0
 25 28  1  0
 25 24  1  0
 25 26  1  1
 25 27  2  0
  6 11  1  0
  6 12  1  0
 29 36  1  0
 29 37  1  0
  9  7  1  1
  7 13  1  0
 10  8  1  1
  8 14  1  0
  4  5  1  0
 36 28  1  6
 33 30  1  1
 30 38  1  0
 34 31  1  6
 31 39  1  0
 35 32  1  6
 32 40  1  0
 41 43  1  0
 15 19  2  0
 42 43  2  0
 16 22  2  0
 12 17  1  6
 17 19  1  0
 17 20  1  0
 18 19  1  0
 18 22  1  0
 18 23  1  0
  9 10  1  0
  9 11  1  0
 10 12  1  0
 11  5  1  6
 33 34  1  0
 33 35  1  0
 34 36  1  0
 35 37  1  0
 37 43  1  1
 20 21  2  0
 21 22  1  0
M  CHG  3   2  -1  26  -1  41  -1
M  END
>  <COMPND>  (39) 
    udp_gluA.pdb 

>  <AUTHOR>  (39) 
    GENERATED BY OPEN BABEL 3.1.1

>  <MASTER>  (39) 
        0    0    0    0    0    0    0    0   56    0   56    0

>  <minimizedAffinity>  (39) 
-7.88569

>  <CNNscore>  (39) 
0.3482093215

>  <CNNaffinity>  (39) 
4.3515357971

>  <CNN_VS>  (39) 
1.5152453184

>  <CNNaffinity_variance>  (39) 
0.1242446676

$$$$
40
     RDKit          3D

 43 45  0  0  0  0  0  0  0  0999 V2000
   17.7185   68.9549   -4.3321 P   0  0  2  0  0  0  0  0  0  0  0  0
   19.3115   68.8442   -4.5950 O   0  0  0  0  0  0  0  0  0  0  0  0
   16.9671   67.6605   -4.4404 O   0  0  0  0  0  0  0  0  0  0  0  0
   17.2401   70.1310   -5.3350 O   0  0  0  0  0  0  0  0  0  0  0  0
   18.1539   70.6033   -6.3078 C   0  0  0  0  0  0  0  0  0  0  0  0
   16.1497   70.7015   -7.6312 O   0  0  0  0  0  0  0  0  0  0  0  0
   17.9536   70.7030  -10.0265 O   0  0  0  0  0  0  0  0  0  0  0  0
   17.2759   73.3337   -9.7893 O   0  0  0  0  0  0  0  0  0  0  0  0
   18.1452   71.3144   -8.7505 C   0  0  1  0  0  0  0  0  0  0  0  0
   17.2678   72.5414   -8.6202 C   0  0  2  0  0  0  0  0  0  0  0  0
   17.5582   70.3892   -7.6934 C   0  0  1  0  0  0  0  0  0  0  0  0
   15.9069   71.9275   -8.3392 C   0  0  2  0  0  0  0  0  0  0  0  0
   18.3208   71.2759  -10.7183 H   0  0  0  0  0  0  0  0  0  0  0  0
   18.1638   73.7018   -9.9242 H   0  0  0  0  0  0  0  0  0  0  0  0
   14.1327   73.8699   -9.3669 O   0  0  0  0  0  0  0  0  0  0  0  0
   12.7788   75.1310   -5.1455 O   0  0  0  0  0  0  0  0  0  0  0  0
   15.0787   72.7773   -7.5312 N   0  0  0  0  0  0  0  0  0  0  0  0
   13.4608   74.4968   -7.2634 N   0  0  0  0  0  0  0  0  0  0  0  0
   14.2223   73.7204   -8.1468 C   0  0  0  0  0  0  0  0  0  0  0  0
   15.1185   72.6708   -6.1463 C   0  0  0  0  0  0  0  0  0  0  0  0
   14.3866   73.4177   -5.3173 C   0  0  0  0  0  0  0  0  0  0  0  0
   13.4665   74.4279   -5.8796 C   0  0  0  0  0  0  0  0  0  0  0  0
   12.8585   75.1619   -7.6686 H   0  0  0  0  0  0  0  0  0  0  0  0
   17.6384   69.6606   -2.8801 O   0  0  0  0  0  0  0  0  0  0  0  0
   18.1404   71.1125   -2.3765 P   0  0  2  0  0  0  0  0  0  0  0  0
   18.1279   70.9693   -0.7641 O   0  0  0  0  0  0  0  0  0  0  0  0
   17.3287   72.2610   -2.9017 O   0  0  0  0  0  0  0  0  0  0  0  0
   19.7044   71.1634   -2.7685 O   0  0  0  0  0  0  0  0  0  0  0  0
   20.7578   72.9442   -1.6160 O   0  0  0  0  0  0  0  0  0  0  0  0
   23.8580   71.4871   -3.9255 O   0  0  0  0  0  0  0  0  0  0  0  0
   21.1763   71.7640   -5.0509 O   0  0  0  0  0  0  0  0  0  0  0  0
   23.7585   70.9020   -1.0797 O   0  0  0  0  0  0  0  0  0  0  0  0
   22.6552   71.4102   -3.1604 C   0  0  2  0  0  0  0  0  0  0  0  0
   21.5859   72.2982   -3.7973 C   0  0  2  0  0  0  0  0  0  0  0  0
   22.9668   71.8875   -1.7402 C   0  0  1  0  0  0  0  0  0  0  0  0
   20.3642   72.4227   -2.8858 C   0  0  1  0  0  0  0  0  0  0  0  0
   21.6901   72.1082   -0.9340 C   0  0  1  0  0  0  0  0  0  0  0  0
   23.6843   71.1885   -4.8321 H   0  0  0  0  0  0  0  0  0  0  0  0
   21.9467   71.6820   -5.6341 H   0  0  0  0  0  0  0  0  0  0  0  0
   24.5741   70.7520   -1.5828 H   0  0  0  0  0  0  0  0  0  0  0  0
   21.0253   73.8173    0.5284 O   0  0  0  0  0  0  0  0  0  0  0  0
   22.9349   72.6860    1.0505 O   0  0  0  0  0  0  0  0  0  0  0  0
   21.9776   72.8757    0.3152 C   0  0  0  0  0  0  0  0  0  0  0  0
  1  4  1  0
  1 24  1  0
  1  2  1  6
  1  3  2  0
 25 28  1  0
 25 24  1  0
 25 26  1  1
 25 27  2  0
  6 11  1  0
  6 12  1  0
 29 36  1  0
 29 37  1  0
  9  7  1  6
  7 13  1  0
 10  8  1  6
  8 14  1  0
  4  5  1  0
 36 28  1  1
 33 30  1  6
 30 38  1  0
 34 31  1  6
 31 39  1  0
 35 32  1  1
 32 40  1  0
 41 43  1  0
 15 19  2  0
 42 43  2  0
 16 22  2  0
 12 17  1  1
 17 19  1  0
 17 20  1  0
 18 19  1  0
 18 22  1  0
 18 23  1  0
  9 10  1  0
  9 11  1  0
 10 12  1  0
 11  5  1  1
 33 34  1  0
 33 35  1  0
 34 36  1  0
 35 37  1  0
 37 43  1  1
 20 21  2  0
 21 22  1  0
M  CHG  3   2  -1  26  -1  41  -1
M  END
>  <COMPND>  (40) 
    udp_gluA.pdb 

>  <AUTHOR>  (40) 
    GENERATED BY OPEN BABEL 3.1.1

>  <MASTER>  (40) 
        0    0    0    0    0    0    0    0   56    0   56    0

>  <minimizedAffinity>  (40) 
-7.88798

>  <CNNscore>  (40) 
0.3399640024

>  <CNNaffinity>  (40) 
4.0862817764

>  <CNN_VS>  (40) 
1.3891887665

>  <CNNaffinity_variance>  (40) 
0.1305241436

$$$$
41
     RDKit          3D

 43 45  0  0  0  0  0  0  0  0999 V2000
   20.3135   70.8476   -1.3380 P   0  0  2  0  0  0  0  0  0  0  0  0
   20.1209   69.3559   -0.7408 O   0  0  0  0  0  0  0  0  0  0  0  0
   20.0015   71.9590   -0.3793 O   0  0  0  0  0  0  0  0  0  0  0  0
   19.4467   70.8341   -2.7042 O   0  0  0  0  0  0  0  0  0  0  0  0
   20.1149   71.0638   -3.9311 C   0  0  0  0  0  0  0  0  0  0  0  0
   18.8944   69.0140   -4.2254 O   0  0  0  0  0  0  0  0  0  0  0  0
   19.3513   69.3814   -7.1661 O   0  0  0  0  0  0  0  0  0  0  0  0
   16.7796   70.2320   -6.8518 O   0  0  0  0  0  0  0  0  0  0  0  0
   19.1068   70.3644   -6.1598 C   0  0  1  0  0  0  0  0  0  0  0  0
   17.6508   70.3393   -5.7454 C   0  0  2  0  0  0  0  0  0  0  0  0
   19.8086   69.9164   -4.8851 C   0  0  1  0  0  0  0  0  0  0  0  0
   17.6011   69.1192   -4.8416 C   0  0  2  0  0  0  0  0  0  0  0  0
   18.9126   69.6459   -7.9903 H   0  0  0  0  0  0  0  0  0  0  0  0
   16.8479   71.0328   -7.3959 H   0  0  0  0  0  0  0  0  0  0  0  0
   16.5339   66.9399   -3.3965 O   0  0  0  0  0  0  0  0  0  0  0  0
   13.7778   69.6897   -0.9295 O   0  0  0  0  0  0  0  0  0  0  0  0
   16.6035   69.2372   -3.8161 N   0  0  0  0  0  0  0  0  0  0  0  0
   15.1615   68.3114   -2.1699 N   0  0  0  0  0  0  0  0  0  0  0  0
   16.1345   68.0797   -3.1511 C   0  0  0  0  0  0  0  0  0  0  0  0
   16.1016   70.4879   -3.4773 C   0  0  0  0  0  0  0  0  0  0  0  0
   15.1744   70.6931   -2.5398 C   0  0  0  0  0  0  0  0  0  0  0  0
   14.6310   69.5362   -1.7983 C   0  0  0  0  0  0  0  0  0  0  0  0
   14.8182   67.5205   -1.6947 H   0  0  0  0  0  0  0  0  0  0  0  0
   21.8381   70.8296   -1.8748 O   0  0  0  0  0  0  0  0  0  0  0  0
   23.1617   71.5863   -1.3371 P   0  0  2  0  0  0  0  0  0  0  0  0
   24.3523   70.5510   -1.6990 O   0  0  0  0  0  0  0  0  0  0  0  0
   23.1017   71.9781    0.1110 O   0  0  0  0  0  0  0  0  0  0  0  0
   23.3706   72.8194   -2.3561 O   0  0  0  0  0  0  0  0  0  0  0  0
   22.3316   74.7457   -1.4513 O   0  0  0  0  0  0  0  0  0  0  0  0
   23.7574   76.1744   -5.0560 O   0  0  0  0  0  0  0  0  0  0  0  0
   22.5036   73.5405   -4.8986 O   0  0  0  0  0  0  0  0  0  0  0  0
   25.1174   76.8512   -2.5774 O   0  0  0  0  0  0  0  0  0  0  0  0
   23.7576   75.3545   -3.8873 C   0  0  2  0  0  0  0  0  0  0  0  0
   22.4847   74.5082   -3.8557 C   0  0  2  0  0  0  0  0  0  0  0  0
   23.8163   76.2734   -2.6650 C   0  0  1  0  0  0  0  0  0  0  0  0
   22.3379   73.7908   -2.5131 C   0  0  1  0  0  0  0  0  0  0  0  0
   23.5359   75.5053   -1.3766 C   0  0  1  0  0  0  0  0  0  0  0  0
   23.7204   75.6121   -5.8457 H   0  0  0  0  0  0  0  0  0  0  0  0
   22.5968   73.9888   -5.7535 H   0  0  0  0  0  0  0  0  0  0  0  0
   25.3083   77.3429   -3.3914 H   0  0  0  0  0  0  0  0  0  0  0  0
   22.0975   76.1413    0.3635 O   0  0  0  0  0  0  0  0  0  0  0  0
   24.0043   77.3617    0.0916 O   0  0  0  0  0  0  0  0  0  0  0  0
   23.2703   76.4450   -0.2458 C   0  0  0  0  0  0  0  0  0  0  0  0
  1  4  1  0
  1 24  1  0
  1  2  1  1
  1  3  2  0
 25 28  1  0
 25 24  1  0
 25 26  1  1
 25 27  2  0
  6 11  1  0
  6 12  1  0
 29 36  1  0
 29 37  1  0
  9  7  1  6
  7 13  1  0
 10  8  1  6
  8 14  1  0
  4  5  1  0
 36 28  1  1
 33 30  1  6
 30 38  1  0
 34 31  1  6
 31 39  1  0
 35 32  1  1
 32 40  1  0
 41 43  1  0
 15 19  2  0
 42 43  2  0
 16 22  2  0
 12 17  1  1
 17 19  1  0
 17 20  1  0
 18 19  1  0
 18 22  1  0
 18 23  1  0
  9 10  1  0
  9 11  1  0
 10 12  1  0
 11  5  1  1
 33 34  1  0
 33 35  1  0
 34 36  1  0
 35 37  1  0
 37 43  1  1
 20 21  2  0
 21 22  1  0
M  CHG  3   2  -1  26  -1  41  -1
M  END
>  <COMPND>  (41) 
    udp_gluA.pdb 

>  <AUTHOR>  (41) 
    GENERATED BY OPEN BABEL 3.1.1

>  <MASTER>  (41) 
        0    0    0    0    0    0    0    0   56    0   56    0

>  <minimizedAffinity>  (41) 
-7.09224

>  <CNNscore>  (41) 
0.6416581273

>  <CNNaffinity>  (41) 
4.5932607651

>  <CNN_VS>  (41) 
2.9473030567

>  <CNNaffinity_variance>  (41) 
0.0811246559

$$$$
42
     RDKit          3D

 43 45  0  0  0  0  0  0  0  0999 V2000
   20.5454   70.5263   -1.6663 P   0  0  2  0  0  0  0  0  0  0  0  0
   20.2303   69.3036   -0.6540 O   0  0  0  0  0  0  0  0  0  0  0  0
   19.7492   71.7741   -1.4197 O   0  0  0  0  0  0  0  0  0  0  0  0
   20.3815   69.8670   -3.1348 O   0  0  0  0  0  0  0  0  0  0  0  0
   19.4852   68.7824   -3.2928 C   0  0  0  0  0  0  0  0  0  0  0  0
   17.7897   70.2493   -4.1596 O   0  0  0  0  0  0  0  0  0  0  0  0
   15.8319   68.6139   -2.5835 O   0  0  0  0  0  0  0  0  0  0  0  0
   15.5181   67.6445   -5.1129 O   0  0  0  0  0  0  0  0  0  0  0  0
   17.0098   68.1956   -3.2736 C   0  0  1  0  0  0  0  0  0  0  0  0
   16.7705   68.1989   -4.7686 C   0  0  2  0  0  0  0  0  0  0  0  0
   18.0590   69.2877   -3.1165 C   0  0  1  0  0  0  0  0  0  0  0  0
   16.8660   69.6784   -5.1000 C   0  0  2  0  0  0  0  0  0  0  0  0
   15.1469   67.9320   -2.6698 H   0  0  0  0  0  0  0  0  0  0  0  0
   15.5075   66.7017   -4.8826 H   0  0  0  0  0  0  0  0  0  0  0  0
   15.5374   71.2587   -7.0272 O   0  0  0  0  0  0  0  0  0  0  0  0
   18.8186   70.5038  -10.1748 O   0  0  0  0  0  0  0  0  0  0  0  0
   17.3508   69.9116   -6.4310 N   0  0  0  0  0  0  0  0  0  0  0  0
   17.1724   70.8804   -8.5934 N   0  0  0  0  0  0  0  0  0  0  0  0
   16.6067   70.7212   -7.3214 C   0  0  0  0  0  0  0  0  0  0  0  0
   18.5505   69.3433   -6.8417 C   0  0  0  0  0  0  0  0  0  0  0  0
   19.0770   69.5042   -8.0573 C   0  0  0  0  0  0  0  0  0  0  0  0
   18.3620   70.3349   -9.0482 C   0  0  0  0  0  0  0  0  0  0  0  0
   16.6714   71.4382   -9.2315 H   0  0  0  0  0  0  0  0  0  0  0  0
   22.1453   70.7098   -1.5269 O   0  0  0  0  0  0  0  0  0  0  0  0
   23.1801   71.6519   -2.3363 P   0  0  2  0  0  0  0  0  0  0  0  0
   24.4029   70.6484   -2.6798 O   0  0  0  0  0  0  0  0  0  0  0  0
   23.5882   72.8942   -1.5986 O   0  0  0  0  0  0  0  0  0  0  0  0
   22.4635   71.9215   -3.7563 O   0  0  0  0  0  0  0  0  0  0  0  0
   23.0904   74.0073   -4.6865 O   0  0  0  0  0  0  0  0  0  0  0  0
   20.1691   72.7539   -7.3253 O   0  0  0  0  0  0  0  0  0  0  0  0
   19.8129   72.4051   -4.4467 O   0  0  0  0  0  0  0  0  0  0  0  0
   22.9741   72.6001   -8.0731 O   0  0  0  0  0  0  0  0  0  0  0  0
   21.2425   72.5947   -6.3977 C   0  0  2  0  0  0  0  0  0  0  0  0
   20.8420   73.1845   -5.0453 C   0  0  2  0  0  0  0  0  0  0  0  0
   22.4638   73.3277   -6.9574 C   0  0  1  0  0  0  0  0  0  0  0  0
   22.0401   73.2405   -4.0964 C   0  0  1  0  0  0  0  0  0  0  0  0
   23.5669   73.4522   -5.9104 C   0  0  1  0  0  0  0  0  0  0  0  0
   19.3818   72.2963   -6.9906 H   0  0  0  0  0  0  0  0  0  0  0  0
   19.0496   72.3651   -5.0435 H   0  0  0  0  0  0  0  0  0  0  0  0
   22.2817   72.5136   -8.7468 H   0  0  0  0  0  0  0  0  0  0  0  0
   24.6571   75.4851   -5.4854 O   0  0  0  0  0  0  0  0  0  0  0  0
   25.3078   74.3229   -7.3361 O   0  0  0  0  0  0  0  0  0  0  0  0
   24.6021   74.4379   -6.3453 C   0  0  0  0  0  0  0  0  0  0  0  0
  1  4  1  0
  1 24  1  0
  1  2  1  1
  1  3  2  0
 25 28  1  0
 25 24  1  0
 25 26  1  6
 25 27  2  0
  6 11  1  0
  6 12  1  0
 29 36  1  0
 29 37  1  0
  9  7  1  1
  7 13  1  0
 10  8  1  1
  8 14  1  0
  4  5  1  0
 36 28  1  6
 33 30  1  6
 30 38  1  0
 34 31  1  1
 31 39  1  0
 35 32  1  6
 32 40  1  0
 41 43  1  0
 15 19  2  0
 42 43  2  0
 16 22  2  0
 12 17  1  6
 17 19  1  0
 17 20  1  0
 18 19  1  0
 18 22  1  0
 18 23  1  0
  9 10  1  0
  9 11  1  0
 10 12  1  0
 11  5  1  6
 33 34  1  0
 33 35  1  0
 34 36  1  0
 35 37  1  0
 37 43  1  6
 20 21  2  0
 21 22  1  0
M  CHG  3   2  -1  26  -1  41  -1
M  END
>  <COMPND>  (42) 
    udp_gluA.pdb 

>  <AUTHOR>  (42) 
    GENERATED BY OPEN BABEL 3.1.1

>  <MASTER>  (42) 
        0    0    0    0    0    0    0    0   56    0   56    0

>  <minimizedAffinity>  (42) 
-8.74953

>  <CNNscore>  (42) 
0.6329410076

>  <CNNaffinity>  (42) 
4.5047864914

>  <CNN_VS>  (42) 
2.8512639999

>  <CNNaffinity_variance>  (42) 
0.5413438678

$$$$
43
     RDKit          3D

 43 45  0  0  0  0  0  0  0  0999 V2000
   20.3812   71.2129   -3.2838 P   0  0  2  0  0  0  0  0  0  0  0  0
   20.6521   69.6238   -3.1423 O   0  0  0  0  0  0  0  0  0  0  0  0
   20.1986   71.9426   -1.9853 O   0  0  0  0  0  0  0  0  0  0  0  0
   19.1434   71.3052   -4.3217 O   0  0  0  0  0  0  0  0  0  0  0  0
   19.4032   71.7265   -5.6481 C   0  0  0  0  0  0  0  0  0  0  0  0
   18.3739   69.5628   -5.8386 O   0  0  0  0  0  0  0  0  0  0  0  0
   17.8481   70.2711   -8.7045 O   0  0  0  0  0  0  0  0  0  0  0  0
   15.4290   70.7162   -7.5272 O   0  0  0  0  0  0  0  0  0  0  0  0
   17.8285   71.1087   -7.5484 C   0  0  1  0  0  0  0  0  0  0  0  0
   16.5859   70.8388   -6.7266 C   0  0  2  0  0  0  0  0  0  0  0  0
   18.9363   70.6441   -6.6129 C   0  0  1  0  0  0  0  0  0  0  0  0
   16.9493   69.5430   -6.0217 C   0  0  2  0  0  0  0  0  0  0  0  0
   17.1487   70.5487   -9.3172 H   0  0  0  0  0  0  0  0  0  0  0  0
   15.2395   71.5671   -7.9540 H   0  0  0  0  0  0  0  0  0  0  0  0
   16.4241   67.0865   -4.7310 O   0  0  0  0  0  0  0  0  0  0  0  0
   14.5121   69.1920   -1.1039 O   0  0  0  0  0  0  0  0  0  0  0  0
   16.3154   69.4203   -4.7395 N   0  0  0  0  0  0  0  0  0  0  0  0
   15.4714   68.1374   -2.9262 N   0  0  0  0  0  0  0  0  0  0  0  0
   16.0977   68.1392   -4.1795 C   0  0  0  0  0  0  0  0  0  0  0  0
   15.9184   70.5596   -4.0502 C   0  0  0  0  0  0  0  0  0  0  0  0
   15.3226   70.5420   -2.8562 C   0  0  0  0  0  0  0  0  0  0  0  0
   15.0577   69.2438   -2.2020 C   0  0  0  0  0  0  0  0  0  0  0  0
   15.3073   67.2570   -2.5171 H   0  0  0  0  0  0  0  0  0  0  0  0
   21.6360   71.7176   -4.1690 O   0  0  0  0  0  0  0  0  0  0  0  0
   23.1188   72.1931   -3.7342 P   0  0  2  0  0  0  0  0  0  0  0  0
   23.9015   70.7957   -3.4998 O   0  0  0  0  0  0  0  0  0  0  0  0
   23.1465   73.1227   -2.5557 O   0  0  0  0  0  0  0  0  0  0  0  0
   23.7652   72.8008   -5.0816 O   0  0  0  0  0  0  0  0  0  0  0  0
   23.2010   75.0995   -5.0007 O   0  0  0  0  0  0  0  0  0  0  0  0
   25.6501   74.9514   -8.3246 O   0  0  0  0  0  0  0  0  0  0  0  0
   23.6565   72.8672   -7.8600 O   0  0  0  0  0  0  0  0  0  0  0  0
   26.6521   76.0374   -5.8210 O   0  0  0  0  0  0  0  0  0  0  0  0
   25.1810   74.5638   -7.0332 C   0  0  2  0  0  0  0  0  0  0  0  0
   23.7310   74.0901   -7.1364 C   0  0  2  0  0  0  0  0  0  0  0  0
   25.2791   75.7800   -6.1096 C   0  0  1  0  0  0  0  0  0  0  0  0
   23.1222   73.8854   -5.7485 C   0  0  1  0  0  0  0  0  0  0  0  0
   24.5406   75.5427   -4.7956 C   0  0  1  0  0  0  0  0  0  0  0  0
   25.5970   74.1942   -8.9288 H   0  0  0  0  0  0  0  0  0  0  0  0
   24.0413   72.9897   -8.7417 H   0  0  0  0  0  0  0  0  0  0  0  0
   27.1335   76.1900   -6.6491 H   0  0  0  0  0  0  0  0  0  0  0  0
   24.3846   77.8807   -4.9002 O   0  0  0  0  0  0  0  0  0  0  0  0
   24.2065   76.9175   -2.8412 O   0  0  0  0  0  0  0  0  0  0  0  0
   24.3594   76.8246   -4.0499 C   0  0  0  0  0  0  0  0  0  0  0  0
  1  4  1  0
  1 24  1  0
  1  2  1  1
  1  3  2  0
 25 28  1  0
 25 24  1  0
 25 26  1  1
 25 27  2  0
  6 11  1  0
  6 12  1  0
 29 36  1  0
 29 37  1  0
  9  7  1  6
  7 13  1  0
 10  8  1  6
  8 14  1  0
  4  5  1  0
 36 28  1  1
 33 30  1  6
 30 38  1  0
 34 31  1  6
 31 39  1  0
 35 32  1  1
 32 40  1  0
 41 43  1  0
 15 19  2  0
 42 43  2  0
 16 22  2  0
 12 17  1  1
 17 19  1  0
 17 20  1  0
 18 19  1  0
 18 22  1  0
 18 23  1  0
  9 10  1  0
  9 11  1  0
 10 12  1  0
 11  5  1  1
 33 34  1  0
 33 35  1  0
 34 36  1  0
 35 37  1  0
 37 43  1  6
 20 21  2  0
 21 22  1  0
M  CHG  3   2  -1  26  -1  41  -1
M  END
>  <COMPND>  (43) 
    udp_gluA.pdb 

>  <AUTHOR>  (43) 
    GENERATED BY OPEN BABEL 3.1.1

>  <MASTER>  (43) 
        0    0    0    0    0    0    0    0   56    0   56    0

>  <minimizedAffinity>  (43) 
-7.31955

>  <CNNscore>  (43) 
0.6322395802

>  <CNNaffinity>  (43) 
4.4875760078

>  <CNN_VS>  (43) 
2.8372230530

>  <CNNaffinity_variance>  (43) 
0.1373085678

$$$$
44
     RDKit          3D

 43 45  0  0  0  0  0  0  0  0999 V2000
   22.5488   73.3323   -6.5376 P   0  0  2  0  0  0  0  0  0  0  0  0
   22.8173   74.3782   -7.7429 O   0  0  0  0  0  0  0  0  0  0  0  0
   23.7784   72.8781   -5.8072 O   0  0  0  0  0  0  0  0  0  0  0  0
   21.6687   72.1626   -7.2269 O   0  0  0  0  0  0  0  0  0  0  0  0
   20.2670   72.3378   -7.3216 C   0  0  0  0  0  0  0  0  0  0  0  0
   19.6947   70.0148   -7.0902 O   0  0  0  0  0  0  0  0  0  0  0  0
   17.8955   70.4141   -9.4555 O   0  0  0  0  0  0  0  0  0  0  0  0
   16.1516   70.4917   -7.3606 O   0  0  0  0  0  0  0  0  0  0  0  0
   18.1970   71.3126   -8.3876 C   0  0  1  0  0  0  0  0  0  0  0  0
   17.4887   70.8785   -7.1218 C   0  0  2  0  0  0  0  0  0  0  0  0
   19.6609   71.1240   -8.0142 C   0  0  1  0  0  0  0  0  0  0  0  0
   18.3573   69.7230   -6.6548 C   0  0  2  0  0  0  0  0  0  0  0  0
   16.9651   70.5163   -9.7116 H   0  0  0  0  0  0  0  0  0  0  0  0
   15.6399   71.2619   -7.6553 H   0  0  0  0  0  0  0  0  0  0  0  0
   16.2062   68.6556   -5.1682 O   0  0  0  0  0  0  0  0  0  0  0  0
   18.4498   69.2075   -1.1800 O   0  0  0  0  0  0  0  0  0  0  0  0
   18.3527   69.5762   -5.2268 N   0  0  0  0  0  0  0  0  0  0  0  0
   17.3253   68.9325   -3.1832 N   0  0  0  0  0  0  0  0  0  0  0  0
   17.2213   69.0285   -4.5771 C   0  0  0  0  0  0  0  0  0  0  0  0
   19.4598   69.9708   -4.4854 C   0  0  0  0  0  0  0  0  0  0  0  0
   19.5442   69.8730   -3.1572 C   0  0  0  0  0  0  0  0  0  0  0  0
   18.4048   69.3120   -2.4020 C   0  0  0  0  0  0  0  0  0  0  0  0
   16.5492   68.5560   -2.7086 H   0  0  0  0  0  0  0  0  0  0  0  0
   21.4677   74.1070   -5.6190 O   0  0  0  0  0  0  0  0  0  0  0  0
   21.6565   75.2591   -4.5006 P   0  0  2  0  0  0  0  0  0  0  0  0
   20.1767   75.9042   -4.3806 O   0  0  0  0  0  0  0  0  0  0  0  0
   22.7396   76.2503   -4.8143 O   0  0  0  0  0  0  0  0  0  0  0  0
   21.8640   74.4562   -3.1169 O   0  0  0  0  0  0  0  0  0  0  0  0
   22.1488   72.1299   -2.7757 O   0  0  0  0  0  0  0  0  0  0  0  0
   20.2530   73.2656    0.7148 O   0  0  0  0  0  0  0  0  0  0  0  0
   19.3860   74.3419   -1.8589 O   0  0  0  0  0  0  0  0  0  0  0  0
   23.1042   72.6984    0.7209 O   0  0  0  0  0  0  0  0  0  0  0  0
   21.1093   73.4290   -0.4156 C   0  0  2  0  0  0  0  0  0  0  0  0
   20.2980   73.2613   -1.7006 C   0  0  2  0  0  0  0  0  0  0  0  0
   22.2061   72.3648   -0.3359 C   0  0  1  0  0  0  0  0  0  0  0  0
   21.2154   73.2007   -2.9228 C   0  0  1  0  0  0  0  0  0  0  0  0
   22.9960   72.2802   -1.6388 C   0  0  1  0  0  0  0  0  0  0  0  0
   19.5479   73.9313    0.6855 H   0  0  0  0  0  0  0  0  0  0  0  0
   18.8010   74.3865   -1.0868 H   0  0  0  0  0  0  0  0  0  0  0  0
   22.6139   72.7556    1.5559 H   0  0  0  0  0  0  0  0  0  0  0  0
   24.0218   70.6301   -2.9527 O   0  0  0  0  0  0  0  0  0  0  0  0
   24.2797   70.4694   -0.6929 O   0  0  0  0  0  0  0  0  0  0  0  0
   23.8287   71.0402   -1.6746 C   0  0  0  0  0  0  0  0  0  0  0  0
  1  4  1  0
  1 24  1  0
  1  2  1  6
  1  3  2  0
 25 28  1  0
 25 24  1  0
 25 26  1  1
 25 27  2  0
  6 11  1  0
  6 12  1  0
 29 36  1  0
 29 37  1  0
  9  7  1  6
  7 13  1  0
 10  8  1  6
  8 14  1  0
  4  5  1  0
 36 28  1  1
 33 30  1  1
 30 38  1  0
 34 31  1  6
 31 39  1  0
 35 32  1  1
 32 40  1  0
 41 43  1  0
 15 19  2  0
 42 43  2  0
 16 22  2  0
 12 17  1  1
 17 19  1  0
 17 20  1  0
 18 19  1  0
 18 22  1  0
 18 23  1  0
  9 10  1  0
  9 11  1  0
 10 12  1  0
 11  5  1  1
 33 34  1  0
 33 35  1  0
 34 36  1  0
 35 37  1  0
 37 43  1  1
 20 21  2  0
 21 22  1  0
M  CHG  3   2  -1  26  -1  41  -1
M  END
>  <COMPND>  (44) 
    udp_gluA.pdb 

>  <AUTHOR>  (44) 
    GENERATED BY OPEN BABEL 3.1.1

>  <MASTER>  (44) 
        0    0    0    0    0    0    0    0   56    0   56    0

>  <minimizedAffinity>  (44) 
-7.83419

>  <CNNscore>  (44) 
0.6220755577

>  <CNNaffinity>  (44) 
4.4140229225

>  <CNN_VS>  (44) 
2.7458558083

>  <CNNaffinity_variance>  (44) 
0.7113913894

$$$$
45
     RDKit          3D

 43 45  0  0  0  0  0  0  0  0999 V2000
   20.5180   70.6528   -1.3066 P   0  0  2  0  0  0  0  0  0  0  0  0
   19.9475   69.2893   -0.6476 O   0  0  0  0  0  0  0  0  0  0  0  0
   19.8927   71.9157   -0.7908 O   0  0  0  0  0  0  0  0  0  0  0  0
   20.3822   70.4011   -2.8991 O   0  0  0  0  0  0  0  0  0  0  0  0
   19.6776   71.3519   -3.6763 C   0  0  0  0  0  0  0  0  0  0  0  0
   17.5822   71.3807   -4.8536 O   0  0  0  0  0  0  0  0  0  0  0  0
   16.5758   69.5187   -2.7295 O   0  0  0  0  0  0  0  0  0  0  0  0
   17.0971   67.8287   -4.8051 O   0  0  0  0  0  0  0  0  0  0  0  0
   17.8715   69.5950   -3.3243 C   0  0  1  0  0  0  0  0  0  0  0  0
   17.8380   69.0286   -4.7280 C   0  0  2  0  0  0  0  0  0  0  0  0
   18.1851   71.0628   -3.5805 C   0  0  1  0  0  0  0  0  0  0  0  0
   17.1977   70.1625   -5.5105 C   0  0  2  0  0  0  0  0  0  0  0  0
   16.3533   68.5901   -2.5565 H   0  0  0  0  0  0  0  0  0  0  0  0
   17.5457   67.1382   -4.2914 H   0  0  0  0  0  0  0  0  0  0  0  0
   15.7777   71.4048   -7.6121 O   0  0  0  0  0  0  0  0  0  0  0  0
   19.0018   70.2712  -10.7048 O   0  0  0  0  0  0  0  0  0  0  0  0
   17.6431   70.2069   -6.8745 N   0  0  0  0  0  0  0  0  0  0  0  0
   17.3843   70.8382   -9.1506 N   0  0  0  0  0  0  0  0  0  0  0  0
   16.8546   70.8562   -7.8537 C   0  0  0  0  0  0  0  0  0  0  0  0
   18.8482   69.6137   -7.2303 C   0  0  0  0  0  0  0  0  0  0  0  0
   19.3402   69.6047   -8.4707 C   0  0  0  0  0  0  0  0  0  0  0  0
   18.5777   70.2607   -9.5531 C   0  0  0  0  0  0  0  0  0  0  0  0
   16.8522   71.2822   -9.8499 H   0  0  0  0  0  0  0  0  0  0  0  0
   22.1107   70.5386   -1.0552 O   0  0  0  0  0  0  0  0  0  0  0  0
   23.3557   71.2643   -1.7880 P   0  0  2  0  0  0  0  0  0  0  0  0
   23.3533   70.6011   -3.2646 O   0  0  0  0  0  0  0  0  0  0  0  0
   24.6601   71.1381   -1.0555 O   0  0  0  0  0  0  0  0  0  0  0  0
   22.8639   72.7827   -2.0228 O   0  0  0  0  0  0  0  0  0  0  0  0
   23.7987   74.9570   -2.1091 O   0  0  0  0  0  0  0  0  0  0  0  0
   20.5229   75.5469    0.3381 O   0  0  0  0  0  0  0  0  0  0  0  0
   22.1947   73.1714    0.6487 O   0  0  0  0  0  0  0  0  0  0  0  0
   20.4601   76.4454   -2.4259 O   0  0  0  0  0  0  0  0  0  0  0  0
   21.2662   74.9451   -0.7217 C   0  0  2  0  0  0  0  0  0  0  0  0
   22.5297   74.2960   -0.1562 C   0  0  2  0  0  0  0  0  0  0  0  0
   21.6341   76.0419   -1.7235 C   0  0  1  0  0  0  0  0  0  0  0  0
   23.4625   73.8435   -1.2805 C   0  0  1  0  0  0  0  0  0  0  0  0
   22.6633   75.5489   -2.7365 C   0  0  1  0  0  0  0  0  0  0  0  0
   20.2780   74.8687    0.9872 H   0  0  0  0  0  0  0  0  0  0  0  0
   21.6028   73.4512    1.3640 H   0  0  0  0  0  0  0  0  0  0  0  0
   19.7968   76.7613   -1.7925 H   0  0  0  0  0  0  0  0  0  0  0  0
   23.0512   77.8602   -2.8296 O   0  0  0  0  0  0  0  0  0  0  0  0
   23.8472   76.6015   -4.5563 O   0  0  0  0  0  0  0  0  0  0  0  0
   23.2559   76.6942   -3.4910 C   0  0  0  0  0  0  0  0  0  0  0  0
  1  4  1  0
  1 24  1  0
  1  2  1  1
  1  3  2  0
 25 28  1  0
 25 24  1  0
 25 26  1  6
 25 27  2  0
  6 11  1  0
  6 12  1  0
 29 36  1  0
 29 37  1  0
  9  7  1  6
  7 13  1  0
 10  8  1  1
  8 14  1  0
  4  5  1  0
 36 28  1  6
 33 30  1  1
 30 38  1  0
 34 31  1  6
 31 39  1  0
 35 32  1  6
 32 40  1  0
 41 43  1  0
 15 19  2  0
 42 43  2  0
 16 22  2  0
 12 17  1  6
 17 19  1  0
 17 20  1  0
 18 19  1  0
 18 22  1  0
 18 23  1  0
  9 10  1  0
  9 11  1  0
 10 12  1  0
 11  5  1  6
 33 34  1  0
 33 35  1  0
 34 36  1  0
 35 37  1  0
 37 43  1  1
 20 21  2  0
 21 22  1  0
M  CHG  3   2  -1  26  -1  41  -1
M  END
>  <COMPND>  (45) 
    udp_gluA.pdb 

>  <AUTHOR>  (45) 
    GENERATED BY OPEN BABEL 3.1.1

>  <MASTER>  (45) 
        0    0    0    0    0    0    0    0   56    0   56    0

>  <minimizedAffinity>  (45) 
-7.78734

>  <CNNscore>  (45) 
0.5733208656

>  <CNNaffinity>  (45) 
4.5546388626

>  <CNN_VS>  (45) 
2.6112694740

>  <CNNaffinity_variance>  (45) 
0.0595044270

$$$$
46
     RDKit          3D

 43 45  0  0  0  0  0  0  0  0999 V2000
   21.5321   72.2275   -3.6241 P   0  0  2  0  0  0  0  0  0  0  0  0
   20.4022   73.3836   -3.5495 O   0  0  0  0  0  0  0  0  0  0  0  0
   22.8256   72.6458   -4.2594 O   0  0  0  0  0  0  0  0  0  0  0  0
   20.7717   70.9861   -4.3303 O   0  0  0  0  0  0  0  0  0  0  0  0
   20.3339   69.9115   -3.5191 C   0  0  0  0  0  0  0  0  0  0  0  0
   18.2535   70.7756   -4.3575 O   0  0  0  0  0  0  0  0  0  0  0  0
   16.9169   68.9613   -2.3792 O   0  0  0  0  0  0  0  0  0  0  0  0
   16.6613   67.5836   -4.7186 O   0  0  0  0  0  0  0  0  0  0  0  0
   18.1034   68.7468   -3.1440 C   0  0  1  0  0  0  0  0  0  0  0  0
   17.7519   68.4718   -4.5907 C   0  0  2  0  0  0  0  0  0  0  0  0
   18.8447   70.0731   -3.2428 C   0  0  1  0  0  0  0  0  0  0  0  0
   17.4357   69.8644   -5.1087 C   0  0  2  0  0  0  0  0  0  0  0  0
   16.4263   68.1276   -2.3023 H   0  0  0  0  0  0  0  0  0  0  0  0
   16.9128   66.7113   -4.3754 H   0  0  0  0  0  0  0  0  0  0  0  0
   15.8382   71.3033   -6.9402 O   0  0  0  0  0  0  0  0  0  0  0  0
   18.6820   70.3595  -10.4425 O   0  0  0  0  0  0  0  0  0  0  0  0
   17.7352   70.0108   -6.5051 N   0  0  0  0  0  0  0  0  0  0  0  0
   17.2555   70.8310   -8.6830 N   0  0  0  0  0  0  0  0  0  0  0  0
   16.8669   70.7541   -7.3391 C   0  0  0  0  0  0  0  0  0  0  0  0
   18.8780   69.4238   -7.0345 C   0  0  0  0  0  0  0  0  0  0  0  0
   19.2354   69.5059   -8.3176 C   0  0  0  0  0  0  0  0  0  0  0  0
   18.3821   70.2637   -9.2563 C   0  0  0  0  0  0  0  0  0  0  0  0
   16.6656   71.3415   -9.2835 H   0  0  0  0  0  0  0  0  0  0  0  0
   21.6616   71.7468   -2.0863 O   0  0  0  0  0  0  0  0  0  0  0  0
   21.8390   72.5940   -0.7208 P   0  0  2  0  0  0  0  0  0  0  0  0
   23.0567   71.8359    0.0293 O   0  0  0  0  0  0  0  0  0  0  0  0
   20.5860   72.7120    0.0978 O   0  0  0  0  0  0  0  0  0  0  0  0
   22.4658   74.0037   -1.1923 O   0  0  0  0  0  0  0  0  0  0  0  0
   22.7124   75.6145    0.5264 O   0  0  0  0  0  0  0  0  0  0  0  0
   23.4574   77.8706   -2.8533 O   0  0  0  0  0  0  0  0  0  0  0  0
   21.2829   75.9200   -2.8246 O   0  0  0  0  0  0  0  0  0  0  0  0
   25.6547   77.0343   -1.1435 O   0  0  0  0  0  0  0  0  0  0  0  0
   23.4490   76.6906   -2.0500 C   0  0  2  0  0  0  0  0  0  0  0  0
   22.0096   76.3372   -1.6747 C   0  0  2  0  0  0  0  0  0  0  0  0
   24.2740   76.9693   -0.7916 C   0  0  1  0  0  0  0  0  0  0  0  0
   21.9749   75.2198   -0.6311 C   0  0  1  0  0  0  0  0  0  0  0  0
   24.0877   75.8710    0.2513 C   0  0  1  0  0  0  0  0  0  0  0  0
   22.9391   77.7172   -3.6589 H   0  0  0  0  0  0  0  0  0  0  0  0
   21.3010   76.6242   -3.4911 H   0  0  0  0  0  0  0  0  0  0  0  0
   25.7869   77.7295   -1.8069 H   0  0  0  0  0  0  0  0  0  0  0  0
   25.9180   75.9353    1.7167 O   0  0  0  0  0  0  0  0  0  0  0  0
   23.9823   76.9088    2.4269 O   0  0  0  0  0  0  0  0  0  0  0  0
   24.6203   76.3038    1.5785 C   0  0  0  0  0  0  0  0  0  0  0  0
  1  4  1  0
  1 24  1  0
  1  2  1  1
  1  3  2  0
 25 28  1  0
 25 24  1  0
 25 26  1  1
 25 27  2  0
  6 11  1  0
  6 12  1  0
 29 36  1  0
 29 37  1  0
  9  7  1  1
  7 13  1  0
 10  8  1  1
  8 14  1  0
  4  5  1  0
 36 28  1  6
 33 30  1  6
 30 38  1  0
 34 31  1  6
 31 39  1  0
 35 32  1  6
 32 40  1  0
 41 43  1  0
 15 19  2  0
 42 43  2  0
 16 22  2  0
 12 17  1  6
 17 19  1  0
 17 20  1  0
 18 19  1  0
 18 22  1  0
 18 23  1  0
  9 10  1  0
  9 11  1  0
 10 12  1  0
 11  5  1  6
 33 34  1  0
 33 35  1  0
 34 36  1  0
 35 37  1  0
 37 43  1  1
 20 21  2  0
 21 22  1  0
M  CHG  3   2  -1  26  -1  41  -1
M  END
>  <COMPND>  (46) 
    udp_gluA.pdb 

>  <AUTHOR>  (46) 
    GENERATED BY OPEN BABEL 3.1.1

>  <MASTER>  (46) 
        0    0    0    0    0    0    0    0   56    0   56    0

>  <minimizedAffinity>  (46) 
-7.32982

>  <CNNscore>  (46) 
0.5713639259

>  <CNNaffinity>  (46) 
4.4706468582

>  <CNN_VS>  (46) 
2.5543663502

>  <CNNaffinity_variance>  (46) 
0.0154537391

$$$$
47
     RDKit          3D

 43 45  0  0  0  0  0  0  0  0999 V2000
   22.3228   73.3079   -6.6913 P   0  0  2  0  0  0  0  0  0  0  0  0
   22.8987   74.1055   -7.9762 O   0  0  0  0  0  0  0  0  0  0  0  0
   23.3606   72.8702   -5.6998 O   0  0  0  0  0  0  0  0  0  0  0  0
   21.4259   72.1264   -7.3374 O   0  0  0  0  0  0  0  0  0  0  0  0
   20.0414   72.0905   -7.0432 C   0  0  0  0  0  0  0  0  0  0  0  0
   18.9192   69.9881   -6.7302 O   0  0  0  0  0  0  0  0  0  0  0  0
   18.0575   70.2339   -9.5918 O   0  0  0  0  0  0  0  0  0  0  0  0
   15.8261   71.0083   -8.2289 O   0  0  0  0  0  0  0  0  0  0  0  0
   18.2158   71.2536   -8.6050 C   0  0  1  0  0  0  0  0  0  0  0  0
   17.0795   71.1971   -7.6060 C   0  0  2  0  0  0  0  0  0  0  0  0
   19.4166   70.8900   -7.7424 C   0  0  1  0  0  0  0  0  0  0  0  0
   17.4831   70.0195   -6.7353 C   0  0  2  0  0  0  0  0  0  0  0  0
   17.2960   70.4443  -10.1553 H   0  0  0  0  0  0  0  0  0  0  0  0
   15.6143   71.7848   -8.7713 H   0  0  0  0  0  0  0  0  0  0  0  0
   16.9448   67.8443   -5.0163 O   0  0  0  0  0  0  0  0  0  0  0  0
   15.6877   70.6397   -1.5740 O   0  0  0  0  0  0  0  0  0  0  0  0
   17.0142   70.1503   -5.3849 N   0  0  0  0  0  0  0  0  0  0  0  0
   16.3182   69.2386   -3.3038 N   0  0  0  0  0  0  0  0  0  0  0  0
   16.7743   68.9938   -4.6058 C   0  0  0  0  0  0  0  0  0  0  0  0
   16.7983   71.4124   -4.8448 C   0  0  0  0  0  0  0  0  0  0  0  0
   16.3635   71.6298   -3.6021 C   0  0  0  0  0  0  0  0  0  0  0  0
   16.0880   70.4750   -2.7224 C   0  0  0  0  0  0  0  0  0  0  0  0
   16.1423   68.4488   -2.7430 H   0  0  0  0  0  0  0  0  0  0  0  0
   21.2135   74.3244   -6.1004 O   0  0  0  0  0  0  0  0  0  0  0  0
   21.0150   74.9327   -4.6158 P   0  0  2  0  0  0  0  0  0  0  0  0
   19.4630   75.3928   -4.6090 O   0  0  0  0  0  0  0  0  0  0  0  0
   21.9847   76.0229   -4.2622 O   0  0  0  0  0  0  0  0  0  0  0  0
   21.0637   73.6504   -3.6382 O   0  0  0  0  0  0  0  0  0  0  0  0
   19.5657   72.1103   -2.6415 O   0  0  0  0  0  0  0  0  0  0  0  0
   21.9231   73.1914    0.5744 O   0  0  0  0  0  0  0  0  0  0  0  0
   21.0061   75.2054   -1.3328 O   0  0  0  0  0  0  0  0  0  0  0  0
   22.2995   70.6099   -0.7082 O   0  0  0  0  0  0  0  0  0  0  0  0
   21.6339   72.9238   -0.7977 C   0  0  2  0  0  0  0  0  0  0  0  0
   20.5305   73.8653   -1.2812 C   0  0  2  0  0  0  0  0  0  0  0  0
   21.1776   71.4673   -0.9094 C   0  0  1  0  0  0  0  0  0  0  0  0
   20.0342   73.4591   -2.6695 C   0  0  1  0  0  0  0  0  0  0  0  0
   20.5800   71.1746   -2.2826 C   0  0  1  0  0  0  0  0  0  0  0  0
   22.2152   74.1117    0.6699 H   0  0  0  0  0  0  0  0  0  0  0  0
   21.3229   75.4696   -0.4552 H   0  0  0  0  0  0  0  0  0  0  0  0
   22.6893   70.7863    0.1623 H   0  0  0  0  0  0  0  0  0  0  0  0
   19.3967   69.5833   -1.0299 O   0  0  0  0  0  0  0  0  0  0  0  0
   19.6726   69.1608   -3.2536 O   0  0  0  0  0  0  0  0  0  0  0  0
   19.8477   69.8723   -2.2758 C   0  0  0  0  0  0  0  0  0  0  0  0
  1  4  1  0
  1 24  1  0
  1  2  1  6
  1  3  2  0
 25 28  1  0
 25 24  1  0
 25 26  1  6
 25 27  2  0
  6 11  1  0
  6 12  1  0
 29 36  1  0
 29 37  1  0
  9  7  1  6
  7 13  1  0
 10  8  1  6
  8 14  1  0
  4  5  1  0
 36 28  1  6
 33 30  1  1
 30 38  1  0
 34 31  1  6
 31 39  1  0
 35 32  1  6
 32 40  1  0
 41 43  1  0
 15 19  2  0
 42 43  2  0
 16 22  2  0
 12 17  1  1
 17 19  1  0
 17 20  1  0
 18 19  1  0
 18 22  1  0
 18 23  1  0
  9 10  1  0
  9 11  1  0
 10 12  1  0
 11  5  1  1
 33 34  1  0
 33 35  1  0
 34 36  1  0
 35 37  1  0
 37 43  1  1
 20 21  2  0
 21 22  1  0
M  CHG  3   2  -1  26  -1  41  -1
M  END
>  <COMPND>  (47) 
    udp_gluA.pdb 

>  <AUTHOR>  (47) 
    GENERATED BY OPEN BABEL 3.1.1

>  <MASTER>  (47) 
        0    0    0    0    0    0    0    0   56    0   56    0

>  <minimizedAffinity>  (47) 
-7.27106

>  <CNNscore>  (47) 
0.5527584553

>  <CNNaffinity>  (47) 
4.2950568199

>  <CNN_VS>  (47) 
2.3741290569

>  <CNNaffinity_variance>  (47) 
0.5571337938

$$$$
48
     RDKit          3D

 43 45  0  0  0  0  0  0  0  0999 V2000
   18.8823   69.3710   -3.9547 P   0  0  2  0  0  0  0  0  0  0  0  0
   20.4356   69.7374   -4.2225 O   0  0  0  0  0  0  0  0  0  0  0  0
   18.6533   68.0912   -3.2055 O   0  0  0  0  0  0  0  0  0  0  0  0
   18.2042   69.4576   -5.4212 O   0  0  0  0  0  0  0  0  0  0  0  0
   18.9494   70.0348   -6.4776 C   0  0  0  0  0  0  0  0  0  0  0  0
   16.7566   70.1820   -7.4510 O   0  0  0  0  0  0  0  0  0  0  0  0
   18.1509   70.4882  -10.0880 O   0  0  0  0  0  0  0  0  0  0  0  0
   17.4586   73.0544   -9.4786 O   0  0  0  0  0  0  0  0  0  0  0  0
   18.5310   70.9796   -8.8024 C   0  0  1  0  0  0  0  0  0  0  0  0
   17.6574   72.1523   -8.4103 C   0  0  2  0  0  0  0  0  0  0  0  0
   18.1437   69.9333   -7.7663 C   0  0  1  0  0  0  0  0  0  0  0  0
   16.3743   71.4606   -7.9825 C   0  0  2  0  0  0  0  0  0  0  0  0
   18.3884   71.1399  -10.7667 H   0  0  0  0  0  0  0  0  0  0  0  0
   18.3042   73.4688   -9.7135 H   0  0  0  0  0  0  0  0  0  0  0  0
   14.4729   73.4804   -8.5131 O   0  0  0  0  0  0  0  0  0  0  0  0
   13.7235   74.2083   -4.0239 O   0  0  0  0  0  0  0  0  0  0  0  0
   15.6672   72.1941   -6.9711 N   0  0  0  0  0  0  0  0  0  0  0  0
   14.1022   73.8417   -6.2767 N   0  0  0  0  0  0  0  0  0  0  0  0
   14.7326   73.1888   -7.3441 C   0  0  0  0  0  0  0  0  0  0  0  0
   15.9007   71.9247   -5.6281 C   0  0  0  0  0  0  0  0  0  0  0  0
   15.2920   72.5554   -4.6218 C   0  0  0  0  0  0  0  0  0  0  0  0
   14.3018   73.6092   -4.9255 C   0  0  0  0  0  0  0  0  0  0  0  0
   13.4488   74.5398   -6.5115 H   0  0  0  0  0  0  0  0  0  0  0  0
   18.3196   70.6939   -3.2155 O   0  0  0  0  0  0  0  0  0  0  0  0
   18.4273   71.1766   -1.6763 P   0  0  2  0  0  0  0  0  0  0  0  0
   18.9141   69.8405   -0.9029 O   0  0  0  0  0  0  0  0  0  0  0  0
   17.1662   71.7820   -1.1312 O   0  0  0  0  0  0  0  0  0  0  0  0
   19.7088   72.1560   -1.6433 O   0  0  0  0  0  0  0  0  0  0  0  0
   21.9134   71.3573   -1.9765 O   0  0  0  0  0  0  0  0  0  0  0  0
   22.6011   74.9384   -0.0346 O   0  0  0  0  0  0  0  0  0  0  0  0
   20.4465   73.1698    0.8395 O   0  0  0  0  0  0  0  0  0  0  0  0
   23.0569   74.7198   -2.8974 O   0  0  0  0  0  0  0  0  0  0  0  0
   21.9069   74.0344   -0.8942 C   0  0  2  0  0  0  0  0  0  0  0  0
   21.4579   72.8110   -0.0948 C   0  0  2  0  0  0  0  0  0  0  0  0
   22.8635   73.6172   -2.0134 C   0  0  1  0  0  0  0  0  0  0  0  0
   20.9163   71.7210   -1.0209 C   0  0  1  0  0  0  0  0  0  0  0  0
   22.3069   72.4428   -2.8131 C   0  0  1  0  0  0  0  0  0  0  0  0
   22.0127   75.2172    0.6846 H   0  0  0  0  0  0  0  0  0  0  0  0
   20.7832   73.8613    1.4301 H   0  0  0  0  0  0  0  0  0  0  0  0
   23.4108   75.4741   -2.4008 H   0  0  0  0  0  0  0  0  0  0  0  0
   23.8170   70.6766   -3.1322 O   0  0  0  0  0  0  0  0  0  0  0  0
   23.7778   72.3114   -4.7211 O   0  0  0  0  0  0  0  0  0  0  0  0
   23.3677   71.8362   -3.6728 C   0  0  0  0  0  0  0  0  0  0  0  0
  1  4  1  0
  1 24  1  0
  1  2  1  6
  1  3  2  0
 25 28  1  0
 25 24  1  0
 25 26  1  1
 25 27  2  0
  6 11  1  0
  6 12  1  0
 29 36  1  0
 29 37  1  0
  9  7  1  6
  7 13  1  0
 10  8  1  6
  8 14  1  0
  4  5  1  0
 36 28  1  6
 33 30  1  1
 30 38  1  0
 34 31  1  1
 31 39  1  0
 35 32  1  6
 32 40  1  0
 41 43  1  0
 15 19  2  0
 42 43  2  0
 16 22  2  0
 12 17  1  1
 17 19  1  0
 17 20  1  0
 18 19  1  0
 18 22  1  0
 18 23  1  0
  9 10  1  0
  9 11  1  0
 10 12  1  0
 11  5  1  1
 33 34  1  0
 33 35  1  0
 34 36  1  0
 35 37  1  0
 37 43  1  6
 20 21  2  0
 21 22  1  0
M  CHG  3   2  -1  26  -1  41  -1
M  END
>  <COMPND>  (48) 
    udp_gluA.pdb 

>  <AUTHOR>  (48) 
    GENERATED BY OPEN BABEL 3.1.1

>  <MASTER>  (48) 
        0    0    0    0    0    0    0    0   56    0   56    0

>  <minimizedAffinity>  (48) 
-8.30035

>  <CNNscore>  (48) 
0.5409120917

>  <CNNaffinity>  (48) 
4.4495177269

>  <CNN_VS>  (48) 
2.4067978859

>  <CNNaffinity_variance>  (48) 
0.1097484976

$$$$
49
     RDKit          3D

 43 45  0  0  0  0  0  0  0  0999 V2000
   17.0596   72.9524   -3.9836 P   0  0  2  0  0  0  0  0  0  0  0  0
   15.4674   73.0602   -3.7149 O   0  0  0  0  0  0  0  0  0  0  0  0
   17.8016   74.2553   -3.9250 O   0  0  0  0  0  0  0  0  0  0  0  0
   17.1637   72.1469   -5.3830 O   0  0  0  0  0  0  0  0  0  0  0  0
   17.7743   72.7875   -6.4881 C   0  0  0  0  0  0  0  0  0  0  0  0
   19.4879   71.4085   -5.5187 O   0  0  0  0  0  0  0  0  0  0  0  0
   20.7325   71.3607   -8.2464 O   0  0  0  0  0  0  0  0  0  0  0  0
   19.4769   68.9433   -8.1219 O   0  0  0  0  0  0  0  0  0  0  0  0
   19.3517   71.3598   -7.8830 C   0  0  1  0  0  0  0  0  0  0  0  0
   18.9516   70.0013   -7.3478 C   0  0  2  0  0  0  0  0  0  0  0  0
   19.1883   72.2464   -6.6560 C   0  0  1  0  0  0  0  0  0  0  0  0
   19.5229   70.0359   -5.9405 C   0  0  2  0  0  0  0  0  0  0  0  0
   20.8618   70.8007   -9.0283 H   0  0  0  0  0  0  0  0  0  0  0  0
   19.0821   68.9643   -9.0083 H   0  0  0  0  0  0  0  0  0  0  0  0
   20.4176   69.2666   -3.3745 O   0  0  0  0  0  0  0  0  0  0  0  0
   16.5036   66.9990   -2.4896 O   0  0  0  0  0  0  0  0  0  0  0  0
   18.7580   69.2445   -5.0189 N   0  0  0  0  0  0  0  0  0  0  0  0
   18.4678   68.1371   -2.9367 N   0  0  0  0  0  0  0  0  0  0  0  0
   19.2997   68.9130   -3.7545 C   0  0  0  0  0  0  0  0  0  0  0  0
   17.4866   68.8070   -5.3695 C   0  0  0  0  0  0  0  0  0  0  0  0
   16.7054   68.0681   -4.5793 C   0  0  0  0  0  0  0  0  0  0  0  0
   17.1967   67.6776   -3.2415 C   0  0  0  0  0  0  0  0  0  0  0  0
   18.8241   67.8920   -2.0522 H   0  0  0  0  0  0  0  0  0  0  0  0
   17.5376   71.8557   -2.8966 O   0  0  0  0  0  0  0  0  0  0  0  0
   18.1920   72.0314   -1.4288 P   0  0  2  0  0  0  0  0  0  0  0  0
   18.3447   70.5067   -0.9070 O   0  0  0  0  0  0  0  0  0  0  0  0
   17.4106   72.9244   -0.5090 O   0  0  0  0  0  0  0  0  0  0  0  0
   19.7038   72.5187   -1.7103 O   0  0  0  0  0  0  0  0  0  0  0  0
   21.8041   71.4274   -1.7956 O   0  0  0  0  0  0  0  0  0  0  0  0
   22.7771   74.9778    0.0795 O   0  0  0  0  0  0  0  0  0  0  0  0
   20.3341   73.5454    0.7966 O   0  0  0  0  0  0  0  0  0  0  0  0
   23.4658   74.5668   -2.7147 O   0  0  0  0  0  0  0  0  0  0  0  0
   22.0524   74.1312   -0.8128 C   0  0  2  0  0  0  0  0  0  0  0  0
   21.3717   73.0152   -0.0199 C   0  0  2  0  0  0  0  0  0  0  0  0
   23.0456   73.5415   -1.8166 C   0  0  1  0  0  0  0  0  0  0  0  0
   20.7792   71.9616   -0.9567 C   0  0  1  0  0  0  0  0  0  0  0  0
   22.4151   72.4121   -2.6263 C   0  0  1  0  0  0  0  0  0  0  0  0
   22.1663   75.3639    0.7268 H   0  0  0  0  0  0  0  0  0  0  0  0
   20.7029   74.2148    1.3934 H   0  0  0  0  0  0  0  0  0  0  0  0
   23.8689   75.2918   -2.2120 H   0  0  0  0  0  0  0  0  0  0  0  0
   23.7081   72.1839   -4.5698 O   0  0  0  0  0  0  0  0  0  0  0  0
   24.0243   70.6391   -2.9229 O   0  0  0  0  0  0  0  0  0  0  0  0
   23.4615   71.6337   -3.3552 C   0  0  0  0  0  0  0  0  0  0  0  0
  1  4  1  0
  1 24  1  0
  1  2  1  1
  1  3  2  0
 25 28  1  0
 25 24  1  0
 25 26  1  1
 25 27  2  0
  6 11  1  0
  6 12  1  0
 29 36  1  0
 29 37  1  0
  9  7  1  1
  7 13  1  0
 10  8  1  6
  8 14  1  0
  4  5  1  0
 36 28  1  6
 33 30  1  1
 30 38  1  0
 34 31  1  6
 31 39  1  0
 35 32  1  6
 32 40  1  0
 41 43  1  0
 15 19  2  0
 42 43  2  0
 16 22  2  0
 12 17  1  1
 17 19  1  0
 17 20  1  0
 18 19  1  0
 18 22  1  0
 18 23  1  0
  9 10  1  0
  9 11  1  0
 10 12  1  0
 11  5  1  1
 33 34  1  0
 33 35  1  0
 34 36  1  0
 35 37  1  0
 37 43  1  1
 20 21  2  0
 21 22  1  0
M  CHG  3   2  -1  26  -1  41  -1
M  END
>  <COMPND>  (49) 
    udp_gluA.pdb 

>  <AUTHOR>  (49) 
    GENERATED BY OPEN BABEL 3.1.1

>  <MASTER>  (49) 
        0    0    0    0    0    0    0    0   56    0   56    0

>  <minimizedAffinity>  (49) 
-7.83973

>  <CNNscore>  (49) 
0.5166509151

>  <CNNaffinity>  (49) 
4.2570753098

>  <CNN_VS>  (49) 
2.1994218826

>  <CNNaffinity_variance>  (49) 
0.8218606114

$$$$
50
     RDKit          3D

 43 45  0  0  0  0  0  0  0  0999 V2000
   19.0863   70.3804   -7.0781 P   0  0  2  0  0  0  0  0  0  0  0  0
   18.7462   71.6008   -8.0850 O   0  0  0  0  0  0  0  0  0  0  0  0
   19.6089   69.1395   -7.7404 O   0  0  0  0  0  0  0  0  0  0  0  0
   17.7292   70.1983   -6.2160 O   0  0  0  0  0  0  0  0  0  0  0  0
   17.5850   69.0369   -5.4193 C   0  0  0  0  0  0  0  0  0  0  0  0
   17.3919   70.7939   -3.7903 O   0  0  0  0  0  0  0  0  0  0  0  0
   17.5035   68.6303   -1.7171 O   0  0  0  0  0  0  0  0  0  0  0  0
   14.8391   69.1968   -1.8443 O   0  0  0  0  0  0  0  0  0  0  0  0
   16.8932   68.6145   -3.0077 C   0  0  1  0  0  0  0  0  0  0  0  0
   15.6209   69.4350   -2.9961 C   0  0  2  0  0  0  0  0  0  0  0  0
   17.7782   69.4123   -3.9556 C   0  0  1  0  0  0  0  0  0  0  0  0
   16.1603   70.8541   -3.0535 C   0  0  2  0  0  0  0  0  0  0  0  0
   16.9560   68.1267   -1.0939 H   0  0  0  0  0  0  0  0  0  0  0  0
   14.5192   68.2806   -1.8545 H   0  0  0  0  0  0  0  0  0  0  0  0
   13.7963   71.8865   -1.9036 O   0  0  0  0  0  0  0  0  0  0  0  0
   12.7900   74.3040   -5.6966 O   0  0  0  0  0  0  0  0  0  0  0  0
   15.2621   71.7552   -3.7182 N   0  0  0  0  0  0  0  0  0  0  0  0
   13.2968   73.0888   -3.7942 N   0  0  0  0  0  0  0  0  0  0  0  0
   14.1016   72.2147   -3.0517 C   0  0  0  0  0  0  0  0  0  0  0  0
   15.5348   72.1759   -5.0142 C   0  0  0  0  0  0  0  0  0  0  0  0
   14.7583   73.0095   -5.7091 C   0  0  0  0  0  0  0  0  0  0  0  0
   13.5261   73.5352   -5.0856 C   0  0  0  0  0  0  0  0  0  0  0  0
   12.4822   73.4204   -3.3518 H   0  0  0  0  0  0  0  0  0  0  0  0
   20.1021   71.0568   -6.0181 O   0  0  0  0  0  0  0  0  0  0  0  0
   20.5703   72.5925   -5.8281 P   0  0  2  0  0  0  0  0  0  0  0  0
   19.1814   73.3682   -5.5285 O   0  0  0  0  0  0  0  0  0  0  0  0
   21.3506   73.1460   -6.9850 O   0  0  0  0  0  0  0  0  0  0  0  0
   21.3578   72.6090   -4.4202 O   0  0  0  0  0  0  0  0  0  0  0  0
   20.0309   72.4399   -2.4657 O   0  0  0  0  0  0  0  0  0  0  0  0
   23.6867   73.5660   -0.9052 O   0  0  0  0  0  0  0  0  0  0  0  0
   22.6703   74.8124   -3.3440 O   0  0  0  0  0  0  0  0  0  0  0  0
   22.7832   70.8134   -0.6653 O   0  0  0  0  0  0  0  0  0  0  0  0
   22.8049   72.9243   -1.8265 C   0  0  2  0  0  0  0  0  0  0  0  0
   21.9070   73.9699   -2.4883 C   0  0  2  0  0  0  0  0  0  0  0  0
   21.9602   71.9140   -1.0470 C   0  0  1  0  0  0  0  0  0  0  0  0
   20.8000   73.3021   -3.3052 C   0  0  1  0  0  0  0  0  0  0  0  0
   20.8023   71.3878   -1.8902 C   0  0  1  0  0  0  0  0  0  0  0  0
   24.2338   74.2128   -1.3781 H   0  0  0  0  0  0  0  0  0  0  0  0
   23.3748   75.2393   -2.8323 H   0  0  0  0  0  0  0  0  0  0  0  0
   23.5242   71.1347   -0.1282 H   0  0  0  0  0  0  0  0  0  0  0  0
   20.2036   69.3938   -0.8100 O   0  0  0  0  0  0  0  0  0  0  0  0
   18.7780   71.1605   -0.5972 O   0  0  0  0  0  0  0  0  0  0  0  0
   19.8075   70.6708   -1.0366 C   0  0  0  0  0  0  0  0  0  0  0  0
  1  4  1  0
  1 24  1  0
  1  2  1  6
  1  3  2  0
 25 28  1  0
 25 24  1  0
 25 26  1  1
 25 27  2  0
  6 11  1  0
  6 12  1  0
 29 36  1  0
 29 37  1  0
  9  7  1  1
  7 13  1  0
 10  8  1  1
  8 14  1  0
  4  5  1  0
 36 28  1  6
 33 30  1  1
 30 38  1  0
 34 31  1  6
 31 39  1  0
 35 32  1  6
 32 40  1  0
 41 43  1  0
 15 19  2  0
 42 43  2  0
 16 22  2  0
 12 17  1  6
 17 19  1  0
 17 20  1  0
 18 19  1  0
 18 22  1  0
 18 23  1  0
  9 10  1  0
  9 11  1  0
 10 12  1  0
 11  5  1  6
 33 34  1  0
 33 35  1  0
 34 36  1  0
 35 37  1  0
 37 43  1  1
 20 21  2  0
 21 22  1  0
M  CHG  3   2  -1  26  -1  41  -1
M  END
>  <COMPND>  (50) 
    udp_gluA.pdb 

>  <AUTHOR>  (50) 
    GENERATED BY OPEN BABEL 3.1.1

>  <MASTER>  (50) 
        0    0    0    0    0    0    0    0   56    0   56    0

>  <minimizedAffinity>  (50) 
-6.86442

>  <CNNscore>  (50) 
0.4938347340

>  <CNNaffinity>  (50) 
4.2165627480

>  <CNN_VS>  (50) 
2.0822851658

>  <CNNaffinity_variance>  (50) 
0.3958248198

$$$$
51
     RDKit          3D

 43 45  0  0  0  0  0  0  0  0999 V2000
   21.7708   71.0059   -2.1551 P   0  0  2  0  0  0  0  0  0  0  0  0
   23.3111   70.8884   -2.6373 O   0  0  0  0  0  0  0  0  0  0  0  0
   21.4506   70.2881   -0.8768 O   0  0  0  0  0  0  0  0  0  0  0  0
   20.9213   70.5437   -3.4523 O   0  0  0  0  0  0  0  0  0  0  0  0
   20.1525   69.3577   -3.3695 C   0  0  0  0  0  0  0  0  0  0  0  0
   18.2292   70.5519   -4.1775 O   0  0  0  0  0  0  0  0  0  0  0  0
   16.6231   68.8770   -2.2784 O   0  0  0  0  0  0  0  0  0  0  0  0
   16.1877   67.6465   -4.6727 O   0  0  0  0  0  0  0  0  0  0  0  0
   17.7716   68.5206   -3.0481 C   0  0  1  0  0  0  0  0  0  0  0  0
   17.3960   68.3584   -4.5058 C   0  0  2  0  0  0  0  0  0  0  0  0
   18.7009   69.7260   -3.0908 C   0  0  1  0  0  0  0  0  0  0  0  0
   17.2927   69.8020   -4.9674 C   0  0  2  0  0  0  0  0  0  0  0  0
   16.0144   68.1223   -2.2369 H   0  0  0  0  0  0  0  0  0  0  0  0
   16.3050   66.7337   -4.3647 H   0  0  0  0  0  0  0  0  0  0  0  0
   15.8924   71.4751   -6.7609 O   0  0  0  0  0  0  0  0  0  0  0  0
   18.6468   70.3234  -10.2724 O   0  0  0  0  0  0  0  0  0  0  0  0
   17.6226   69.9583   -6.3558 N   0  0  0  0  0  0  0  0  0  0  0  0
   17.2649   70.8991   -8.5083 N   0  0  0  0  0  0  0  0  0  0  0  0
   16.8551   70.8238   -7.1706 C   0  0  0  0  0  0  0  0  0  0  0  0
   18.6958   69.2605   -6.8965 C   0  0  0  0  0  0  0  0  0  0  0  0
   19.0745   69.3427   -8.1735 C   0  0  0  0  0  0  0  0  0  0  0  0
   18.3248   70.2243   -9.0922 C   0  0  0  0  0  0  0  0  0  0  0  0
   16.7446   71.4938   -9.0955 H   0  0  0  0  0  0  0  0  0  0  0  0
   21.5254   72.6030   -2.1102 O   0  0  0  0  0  0  0  0  0  0  0  0
   20.1594   73.4658   -2.0556 P   0  0  2  0  0  0  0  0  0  0  0  0
   20.6783   74.9582   -1.7036 O   0  0  0  0  0  0  0  0  0  0  0  0
   19.1295   72.9288   -1.1043 O   0  0  0  0  0  0  0  0  0  0  0  0
   19.6707   73.5562   -3.5903 O   0  0  0  0  0  0  0  0  0  0  0  0
   21.5160   74.3538   -4.8423 O   0  0  0  0  0  0  0  0  0  0  0  0
   18.6804   73.7870   -7.7929 O   0  0  0  0  0  0  0  0  0  0  0  0
   17.9352   74.9802   -5.2325 O   0  0  0  0  0  0  0  0  0  0  0  0
   20.8642   71.8931   -7.4847 O   0  0  0  0  0  0  0  0  0  0  0  0
   19.3488   73.5218   -6.5596 C   0  0  2  0  0  0  0  0  0  0  0  0
   19.2735   74.7564   -5.6610 C   0  0  2  0  0  0  0  0  0  0  0  0
   20.8069   73.1816   -6.8756 C   0  0  1  0  0  0  0  0  0  0  0  0
   20.1694   74.5941   -4.4322 C   0  0  1  0  0  0  0  0  0  0  0  0
   21.6610   73.1619   -5.6112 C   0  0  1  0  0  0  0  0  0  0  0  0
   17.7517   74.0058   -7.6170 H   0  0  0  0  0  0  0  0  0  0  0  0
   17.3612   75.0838   -6.0071 H   0  0  0  0  0  0  0  0  0  0  0  0
   20.3244   71.8921   -8.2906 H   0  0  0  0  0  0  0  0  0  0  0  0
   23.2950   73.3640   -7.2818 O   0  0  0  0  0  0  0  0  0  0  0  0
   24.0240   72.9955   -5.1529 O   0  0  0  0  0  0  0  0  0  0  0  0
   23.1154   73.1582   -5.9535 C   0  0  0  0  0  0  0  0  0  0  0  0
  1  4  1  0
  1 24  1  0
  1  2  1  6
  1  3  2  0
 25 28  1  0
 25 24  1  0
 25 26  1  1
 25 27  2  0
  6 11  1  0
  6 12  1  0
 29 36  1  0
 29 37  1  0
  9  7  1  1
  7 13  1  0
 10  8  1  1
  8 14  1  0
  4  5  1  0
 36 28  1  6
 33 30  1  6
 30 38  1  0
 34 31  1  1
 31 39  1  0
 35 32  1  1
 32 40  1  0
 41 43  1  0
 15 19  2  0
 42 43  2  0
 16 22  2  0
 12 17  1  6
 17 19  1  0
 17 20  1  0
 18 19  1  0
 18 22  1  0
 18 23  1  0
  9 10  1  0
  9 11  1  0
 10 12  1  0
 11  5  1  6
 33 34  1  0
 33 35  1  0
 34 36  1  0
 35 37  1  0
 37 43  1  6
 20 21  2  0
 21 22  1  0
M  CHG  3   2  -1  26  -1  41  -1
M  END
>  <COMPND>  (51) 
    udp_gluA.pdb 

>  <AUTHOR>  (51) 
    GENERATED BY OPEN BABEL 3.1.1

>  <MASTER>  (51) 
        0    0    0    0    0    0    0    0   56    0   56    0

>  <minimizedAffinity>  (51) 
-7.62279

>  <CNNscore>  (51) 
0.4909148812

>  <CNNaffinity>  (51) 
4.2610521317

>  <CNN_VS>  (51) 
2.0918138027

>  <CNNaffinity_variance>  (51) 
0.7558339834

$$$$
52
     RDKit          3D

 43 45  0  0  0  0  0  0  0  0999 V2000
   22.4932   72.8616   -4.2591 P   0  0  2  0  0  0  0  0  0  0  0  0
   23.8572   72.5281   -5.0637 O   0  0  0  0  0  0  0  0  0  0  0  0
   22.3875   74.2682   -3.7470 O   0  0  0  0  0  0  0  0  0  0  0  0
   22.4088   71.6976   -3.1384 O   0  0  0  0  0  0  0  0  0  0  0  0
   21.1397   71.3585   -2.6102 C   0  0  0  0  0  0  0  0  0  0  0  0
   19.0448   72.5369   -2.6033 O   0  0  0  0  0  0  0  0  0  0  0  0
   20.2114   74.2200   -0.4130 O   0  0  0  0  0  0  0  0  0  0  0  0
   18.6167   72.4824    0.9559 O   0  0  0  0  0  0  0  0  0  0  0  0
   20.3878   72.8274   -0.6739 C   0  0  1  0  0  0  0  0  0  0  0  0
   19.1425   72.0593   -0.2847 C   0  0  2  0  0  0  0  0  0  0  0  0
   20.4231   72.6332   -2.1836 C   0  0  1  0  0  0  0  0  0  0  0  0
   18.2112   72.3585   -1.4471 C   0  0  2  0  0  0  0  0  0  0  0  0
   20.1857   74.3690    0.5456 H   0  0  0  0  0  0  0  0  0  0  0  0
   19.2461   72.2695    1.6633 H   0  0  0  0  0  0  0  0  0  0  0  0
   18.8594   69.6156   -1.2671 O   0  0  0  0  0  0  0  0  0  0  0  0
   14.5858   68.3420   -2.4326 O   0  0  0  0  0  0  0  0  0  0  0  0
   17.2871   71.2891   -1.6982 N   0  0  0  0  0  0  0  0  0  0  0  0
   16.7306   68.9839   -1.8487 N   0  0  0  0  0  0  0  0  0  0  0  0
   17.7139   69.9452   -1.5804 C   0  0  0  0  0  0  0  0  0  0  0  0
   15.9750   71.5756   -2.0549 C   0  0  0  0  0  0  0  0  0  0  0  0
   15.0490   70.6485   -2.3075 C   0  0  0  0  0  0  0  0  0  0  0  0
   15.4133   69.2200   -2.2075 C   0  0  0  0  0  0  0  0  0  0  0  0
   17.0046   68.0411   -1.7752 H   0  0  0  0  0  0  0  0  0  0  0  0
   21.3397   72.4390   -5.3096 O   0  0  0  0  0  0  0  0  0  0  0  0
   20.9633   73.0291   -6.7670 P   0  0  2  0  0  0  0  0  0  0  0  0
   21.8970   72.1653   -7.7682 O   0  0  0  0  0  0  0  0  0  0  0  0
   21.1324   74.5156   -6.8919 O   0  0  0  0  0  0  0  0  0  0  0  0
   19.4657   72.4997   -7.0486 O   0  0  0  0  0  0  0  0  0  0  0  0
   19.2181   70.1612   -6.7663 O   0  0  0  0  0  0  0  0  0  0  0  0
   15.5750   71.1994   -8.4149 O   0  0  0  0  0  0  0  0  0  0  0  0
   18.0500   72.3656   -9.4390 O   0  0  0  0  0  0  0  0  0  0  0  0
   15.7765   70.6084   -5.5757 O   0  0  0  0  0  0  0  0  0  0  0  0
   16.7542   71.3921   -7.6336 C   0  0  2  0  0  0  0  0  0  0  0  0
   17.9871   71.2728   -8.5299 C   0  0  2  0  0  0  0  0  0  0  0  0
   16.7813   70.3167   -6.5452 C   0  0  1  0  0  0  0  0  0  0  0  0
   19.2688   71.2440   -7.6961 C   0  0  1  0  0  0  0  0  0  0  0  0
   18.1358   70.2676   -5.8442 C   0  0  1  0  0  0  0  0  0  0  0  0
   15.5362   71.8716   -9.1134 H   0  0  0  0  0  0  0  0  0  0  0  0
   17.2397   72.3900   -9.9711 H   0  0  0  0  0  0  0  0  0  0  0  0
   14.9094   70.6427   -6.0090 H   0  0  0  0  0  0  0  0  0  0  0  0
   19.5101   68.9266   -4.4971 O   0  0  0  0  0  0  0  0  0  0  0  0
   17.3790   68.2002   -4.8572 O   0  0  0  0  0  0  0  0  0  0  0  0
   18.2663   69.0225   -5.0287 C   0  0  0  0  0  0  0  0  0  0  0  0
  1  4  1  0
  1 24  1  0
  1  2  1  6
  1  3  2  0
 25 28  1  0
 25 24  1  0
 25 26  1  6
 25 27  2  0
  6 11  1  0
  6 12  1  0
 29 36  1  0
 29 37  1  0
  9  7  1  6
  7 13  1  0
 10  8  1  1
  8 14  1  0
  4  5  1  0
 36 28  1  1
 33 30  1  6
 30 38  1  0
 34 31  1  6
 31 39  1  0
 35 32  1  1
 32 40  1  0
 41 43  1  0
 15 19  2  0
 42 43  2  0
 16 22  2  0
 12 17  1  6
 17 19  1  0
 17 20  1  0
 18 19  1  0
 18 22  1  0
 18 23  1  0
  9 10  1  0
  9 11  1  0
 10 12  1  0
 11  5  1  1
 33 34  1  0
 33 35  1  0
 34 36  1  0
 35 37  1  0
 37 43  1  1
 20 21  2  0
 21 22  1  0
M  CHG  3   2  -1  26  -1  41  -1
M  END
>  <COMPND>  (52) 
    udp_gluA.pdb 

>  <AUTHOR>  (52) 
    GENERATED BY OPEN BABEL 3.1.1

>  <MASTER>  (52) 
        0    0    0    0    0    0    0    0   56    0   56    0

>  <minimizedAffinity>  (52) 
-7.67889

>  <CNNscore>  (52) 
0.4824058414

>  <CNNaffinity>  (52) 
4.0308184624

>  <CNN_VS>  (52) 
1.9444903135

>  <CNNaffinity_variance>  (52) 
0.9179781079

$$$$
53
     RDKit          3D

 43 45  0  0  0  0  0  0  0  0999 V2000
   17.7761   70.8147   -2.1669 P   0  0  2  0  0  0  0  0  0  0  0  0
   16.1795   71.0400   -2.3046 O   0  0  0  0  0  0  0  0  0  0  0  0
   18.1812   69.6875   -1.2630 O   0  0  0  0  0  0  0  0  0  0  0  0
   18.3413   72.2762   -1.7641 O   0  0  0  0  0  0  0  0  0  0  0  0
   17.6077   73.0523   -0.8346 C   0  0  0  0  0  0  0  0  0  0  0  0
   19.7416   72.6448    0.1940 O   0  0  0  0  0  0  0  0  0  0  0  0
   19.1281   74.9878    1.9618 O   0  0  0  0  0  0  0  0  0  0  0  0
   20.8306   76.0598    0.1211 O   0  0  0  0  0  0  0  0  0  0  0  0
   18.8109   74.7877    0.5842 C   0  0  1  0  0  0  0  0  0  0  0  0
   20.0520   74.9477   -0.2680 C   0  0  2  0  0  0  0  0  0  0  0  0
   18.4773   73.3151    0.3881 C   0  0  1  0  0  0  0  0  0  0  0  0
   20.7646   73.6259   -0.0387 C   0  0  2  0  0  0  0  0  0  0  0  0
   19.3448   75.9218    2.1117 H   0  0  0  0  0  0  0  0  0  0  0  0
   20.3334   76.8767   -0.0449 H   0  0  0  0  0  0  0  0  0  0  0  0
   22.9495   71.8408    0.0893 O   0  0  0  0  0  0  0  0  0  0  0  0
   23.7028   72.1501   -4.4474 O   0  0  0  0  0  0  0  0  0  0  0  0
   21.5493   73.2226   -1.1711 N   0  0  0  0  0  0  0  0  0  0  0  0
   23.3233   71.9974   -2.1702 N   0  0  0  0  0  0  0  0  0  0  0  0
   22.6261   72.3210   -0.9987 C   0  0  0  0  0  0  0  0  0  0  0  0
   21.2489   73.7171   -2.4345 C   0  0  0  0  0  0  0  0  0  0  0  0
   21.9225   73.3993   -3.5418 C   0  0  0  0  0  0  0  0  0  0  0  0
   23.0625   72.4638   -3.4485 C   0  0  0  0  0  0  0  0  0  0  0  0
   24.0785   71.3729   -2.0750 H   0  0  0  0  0  0  0  0  0  0  0  0
   18.2533   70.6511   -3.7026 O   0  0  0  0  0  0  0  0  0  0  0  0
   19.4381   69.7674   -4.3575 P   0  0  2  0  0  0  0  0  0  0  0  0
   18.8819   68.2524   -4.2325 O   0  0  0  0  0  0  0  0  0  0  0  0
   20.7858   69.9850   -3.7329 O   0  0  0  0  0  0  0  0  0  0  0  0
   19.3703   70.0971   -5.9353 O   0  0  0  0  0  0  0  0  0  0  0  0
   17.0886   70.2530   -6.5508 O   0  0  0  0  0  0  0  0  0  0  0  0
   18.9816   70.9583  -10.1546 O   0  0  0  0  0  0  0  0  0  0  0  0
   19.9450   68.8633   -8.3608 O   0  0  0  0  0  0  0  0  0  0  0  0
   17.7974   73.1611   -8.6727 O   0  0  0  0  0  0  0  0  0  0  0  0
   18.8294   70.9849   -8.7354 C   0  0  2  0  0  0  0  0  0  0  0  0
   18.7114   69.5553   -8.2064 C   0  0  2  0  0  0  0  0  0  0  0  0
   17.5622   71.7790   -8.4105 C   0  0  1  0  0  0  0  0  0  0  0  0
   18.3187   69.5495   -6.7284 C   0  0  1  0  0  0  0  0  0  0  0  0
   17.1661   71.6210   -6.9453 C   0  0  1  0  0  0  0  0  0  0  0  0
   19.7808   70.4587  -10.3849 H   0  0  0  0  0  0  0  0  0  0  0  0
   20.2004   68.8634   -9.2964 H   0  0  0  0  0  0  0  0  0  0  0  0
   18.0505   73.2754   -9.6021 H   0  0  0  0  0  0  0  0  0  0  0  0
   15.4608   72.0655   -5.3974 O   0  0  0  0  0  0  0  0  0  0  0  0
   15.0192   72.5145   -7.5888 O   0  0  0  0  0  0  0  0  0  0  0  0
   15.7751   72.1157   -6.7156 C   0  0  0  0  0  0  0  0  0  0  0  0
  1  4  1  0
  1 24  1  0
  1  2  1  6
  1  3  2  0
 25 28  1  0
 25 24  1  0
 25 26  1  6
 25 27  2  0
  6 11  1  0
  6 12  1  0
 29 36  1  0
 29 37  1  0
  9  7  1  1
  7 13  1  0
 10  8  1  1
  8 14  1  0
  4  5  1  0
 36 28  1  1
 33 30  1  6
 30 38  1  0
 34 31  1  1
 31 39  1  0
 35 32  1  1
 32 40  1  0
 41 43  1  0
 15 19  2  0
 42 43  2  0
 16 22  2  0
 12 17  1  6
 17 19  1  0
 17 20  1  0
 18 19  1  0
 18 22  1  0
 18 23  1  0
  9 10  1  0
  9 11  1  0
 10 12  1  0
 11  5  1  6
 33 34  1  0
 33 35  1  0
 34 36  1  0
 35 37  1  0
 37 43  1  6
 20 21  2  0
 21 22  1  0
M  CHG  3   2  -1  26  -1  41  -1
M  END
>  <COMPND>  (53) 
    udp_gluA.pdb 

>  <AUTHOR>  (53) 
    GENERATED BY OPEN BABEL 3.1.1

>  <MASTER>  (53) 
        0    0    0    0    0    0    0    0   56    0   56    0

>  <minimizedAffinity>  (53) 
-8.11152

>  <CNNscore>  (53) 
0.4500610530

>  <CNNaffinity>  (53) 
4.0540304184

>  <CNN_VS>  (53) 
1.8245612383

>  <CNNaffinity_variance>  (53) 
0.4893919528

$$$$
54
     RDKit          3D

 43 45  0  0  0  0  0  0  0  0999 V2000
   16.4668   72.5725   -4.2978 P   0  0  2  0  0  0  0  0  0  0  0  0
   15.7984   71.4968   -5.3053 O   0  0  0  0  0  0  0  0  0  0  0  0
   15.5248   73.6124   -3.7655 O   0  0  0  0  0  0  0  0  0  0  0  0
   17.7420   73.1346   -5.1199 O   0  0  0  0  0  0  0  0  0  0  0  0
   17.8723   72.7870   -6.4862 C   0  0  0  0  0  0  0  0  0  0  0  0
   19.5915   71.3623   -5.5962 O   0  0  0  0  0  0  0  0  0  0  0  0
   20.7020   71.2759   -8.3802 O   0  0  0  0  0  0  0  0  0  0  0  0
   19.3872   68.8946   -8.1891 O   0  0  0  0  0  0  0  0  0  0  0  0
   19.3407   71.3140   -7.9511 C   0  0  1  0  0  0  0  0  0  0  0  0
   18.9291   69.9679   -7.3936 C   0  0  2  0  0  0  0  0  0  0  0  0
   19.2610   72.2065   -6.7202 C   0  0  1  0  0  0  0  0  0  0  0  0
   19.5681   69.9886   -6.0154 C   0  0  2  0  0  0  0  0  0  0  0  0
   20.7780   70.7114   -9.1659 H   0  0  0  0  0  0  0  0  0  0  0  0
   18.9510   68.9253   -9.0556 H   0  0  0  0  0  0  0  0  0  0  0  0
   20.5364   69.2601   -3.4643 O   0  0  0  0  0  0  0  0  0  0  0  0
   16.6361   67.0388   -2.4169 O   0  0  0  0  0  0  0  0  0  0  0  0
   18.8266   69.2201   -5.0560 N   0  0  0  0  0  0  0  0  0  0  0  0
   18.5933   68.1536   -2.9455 N   0  0  0  0  0  0  0  0  0  0  0  0
   19.4049   68.9080   -3.8029 C   0  0  0  0  0  0  0  0  0  0  0  0
   17.5419   68.7858   -5.3590 C   0  0  0  0  0  0  0  0  0  0  0  0
   16.7804   68.0675   -4.5314 C   0  0  0  0  0  0  0  0  0  0  0  0
   17.3103   67.6981   -3.2024 C   0  0  0  0  0  0  0  0  0  0  0  0
   18.9751   67.9222   -2.0680 H   0  0  0  0  0  0  0  0  0  0  0  0
   17.1463   71.6378   -3.1676 O   0  0  0  0  0  0  0  0  0  0  0  0
   18.1070   72.0079   -1.9211 P   0  0  2  0  0  0  0  0  0  0  0  0
   18.2327   70.6057   -1.1220 O   0  0  0  0  0  0  0  0  0  0  0  0
   17.6167   73.1543   -1.0849 O   0  0  0  0  0  0  0  0  0  0  0  0
   19.5625   72.2335   -2.5790 O   0  0  0  0  0  0  0  0  0  0  0  0
   21.4450   72.7494   -1.2377 O   0  0  0  0  0  0  0  0  0  0  0  0
   22.7113   73.9802   -4.9726 O   0  0  0  0  0  0  0  0  0  0  0  0
   19.9890   74.5405   -4.0729 O   0  0  0  0  0  0  0  0  0  0  0  0
   23.7144   71.4998   -3.8359 O   0  0  0  0  0  0  0  0  0  0  0  0
   21.9919   73.1719   -4.0414 C   0  0  2  0  0  0  0  0  0  0  0  0
   21.0310   74.0487   -3.2381 C   0  0  2  0  0  0  0  0  0  0  0  0
   23.0075   72.5046   -3.1112 C   0  0  1  0  0  0  0  0  0  0  0  0
   20.4130   73.2642   -2.0799 C   0  0  1  0  0  0  0  0  0  0  0  0
   22.3218   71.8515   -1.9146 C   0  0  1  0  0  0  0  0  0  0  0  0
   22.0863   74.4145   -5.5743 H   0  0  0  0  0  0  0  0  0  0  0  0
   20.3740   75.0392   -4.8101 H   0  0  0  0  0  0  0  0  0  0  0  0
   24.1553   71.9023   -4.6004 H   0  0  0  0  0  0  0  0  0  0  0  0
   23.0988   72.2172    0.2681 O   0  0  0  0  0  0  0  0  0  0  0  0
   24.2117   70.6728   -0.9870 O   0  0  0  0  0  0  0  0  0  0  0  0
   23.3191   71.4975   -0.8599 C   0  0  0  0  0  0  0  0  0  0  0  0
  1  4  1  0
  1 24  1  0
  1  2  1  6
  1  3  2  0
 25 28  1  0
 25 24  1  0
 25 26  1  1
 25 27  2  0
  6 11  1  0
  6 12  1  0
 29 36  1  0
 29 37  1  0
  9  7  1  1
  7 13  1  0
 10  8  1  6
  8 14  1  0
  4  5  1  0
 36 28  1  6
 33 30  1  6
 30 38  1  0
 34 31  1  6
 31 39  1  0
 35 32  1  6
 32 40  1  0
 41 43  1  0
 15 19  2  0
 42 43  2  0
 16 22  2  0
 12 17  1  1
 17 19  1  0
 17 20  1  0
 18 19  1  0
 18 22  1  0
 18 23  1  0
  9 10  1  0
  9 11  1  0
 10 12  1  0
 11  5  1  1
 33 34  1  0
 33 35  1  0
 34 36  1  0
 35 37  1  0
 37 43  1  1
 20 21  2  0
 21 22  1  0
M  CHG  3   2  -1  26  -1  41  -1
M  END
>  <COMPND>  (54) 
    udp_gluA.pdb 

>  <AUTHOR>  (54) 
    GENERATED BY OPEN BABEL 3.1.1

>  <MASTER>  (54) 
        0    0    0    0    0    0    0    0   56    0   56    0

>  <minimizedAffinity>  (54) 
-7.07943

>  <CNNscore>  (54) 
0.4297330976

>  <CNNaffinity>  (54) 
4.0611634254

>  <CNN_VS>  (54) 
1.7452163696

>  <CNNaffinity_variance>  (54) 
0.8069143295

$$$$
55
     RDKit          3D

 43 45  0  0  0  0  0  0  0  0999 V2000
   16.3592   72.6261   -2.6720 P   0  0  2  0  0  0  0  0  0  0  0  0
   15.0844   72.0804   -3.5062 O   0  0  0  0  0  0  0  0  0  0  0  0
   16.0224   73.3477   -1.4001 O   0  0  0  0  0  0  0  0  0  0  0  0
   17.2006   73.4772   -3.7609 O   0  0  0  0  0  0  0  0  0  0  0  0
   16.6156   73.7211   -5.0269 C   0  0  0  0  0  0  0  0  0  0  0  0
   18.3275   72.1666   -5.6832 O   0  0  0  0  0  0  0  0  0  0  0  0
   17.9071   73.1700   -8.4775 O   0  0  0  0  0  0  0  0  0  0  0  0
   16.5308   70.8159   -8.4763 O   0  0  0  0  0  0  0  0  0  0  0  0
   16.9517   72.9724   -7.4350 C   0  0  1  0  0  0  0  0  0  0  0  0
   16.6791   71.4950   -7.2470 C   0  0  2  0  0  0  0  0  0  0  0  0
   17.6130   73.3449   -6.1151 C   0  0  1  0  0  0  0  0  0  0  0  0
   17.9065   71.0437   -6.4739 C   0  0  2  0  0  0  0  0  0  0  0  0
   17.5074   72.9384   -9.3309 H   0  0  0  0  0  0  0  0  0  0  0  0
   15.7356   71.1383   -8.9299 H   0  0  0  0  0  0  0  0  0  0  0  0
   19.8848   69.4925   -5.1868 O   0  0  0  0  0  0  0  0  0  0  0  0
   16.7268   66.8210   -3.1537 O   0  0  0  0  0  0  0  0  0  0  0  0
   17.6292   69.9369   -5.6028 N   0  0  0  0  0  0  0  0  0  0  0  0
   18.3101   68.1628   -4.1762 N   0  0  0  0  0  0  0  0  0  0  0  0
   18.6957   69.2234   -5.0066 C   0  0  0  0  0  0  0  0  0  0  0  0
   16.3140   69.5696   -5.3454 C   0  0  0  0  0  0  0  0  0  0  0  0
   15.9620   68.5563   -4.5515 C   0  0  0  0  0  0  0  0  0  0  0  0
   17.0159   67.7591   -3.8903 C   0  0  0  0  0  0  0  0  0  0  0  0
   19.0352   67.6499   -3.7515 H   0  0  0  0  0  0  0  0  0  0  0  0
   17.2593   71.2980   -2.4746 O   0  0  0  0  0  0  0  0  0  0  0  0
   18.5589   71.0239   -1.5529 P   0  0  2  0  0  0  0  0  0  0  0  0
   18.5101   69.4240   -1.3113 O   0  0  0  0  0  0  0  0  0  0  0  0
   18.6030   71.8386   -0.2926 O   0  0  0  0  0  0  0  0  0  0  0  0
   19.8152   71.2485   -2.5396 O   0  0  0  0  0  0  0  0  0  0  0  0
   20.8909   73.0673   -1.4701 O   0  0  0  0  0  0  0  0  0  0  0  0
   23.7476   71.8977   -4.2158 O   0  0  0  0  0  0  0  0  0  0  0  0
   20.9279   72.0142   -4.9710 O   0  0  0  0  0  0  0  0  0  0  0  0
   24.0658   71.2294   -1.4046 O   0  0  0  0  0  0  0  0  0  0  0  0
   22.6648   71.7147   -3.3037 C   0  0  2  0  0  0  0  0  0  0  0  0
   21.4636   72.5417   -3.7629 C   0  0  2  0  0  0  0  0  0  0  0  0
   23.1294   72.1740   -1.9198 C   0  0  1  0  0  0  0  0  0  0  0  0
   20.3680   72.5541   -2.6959 C   0  0  1  0  0  0  0  0  0  0  0  0
   21.9591   72.2813   -0.9465 C   0  0  1  0  0  0  0  0  0  0  0  0
   23.4756   71.6125   -5.1024 H   0  0  0  0  0  0  0  0  0  0  0  0
   21.6178   72.0032   -5.6524 H   0  0  0  0  0  0  0  0  0  0  0  0
   24.8156   71.1516   -2.0149 H   0  0  0  0  0  0  0  0  0  0  0  0
   21.8423   74.2869    0.2640 O   0  0  0  0  0  0  0  0  0  0  0  0
   23.0506   72.5859    1.1836 O   0  0  0  0  0  0  0  0  0  0  0  0
   22.3579   73.0328    0.2817 C   0  0  0  0  0  0  0  0  0  0  0  0
  1  4  1  0
  1 24  1  0
  1  2  1  6
  1  3  2  0
 25 28  1  0
 25 24  1  0
 25 26  1  1
 25 27  2  0
  6 11  1  0
  6 12  1  0
 29 36  1  0
 29 37  1  0
  9  7  1  6
  7 13  1  0
 10  8  1  6
  8 14  1  0
  4  5  1  0
 36 28  1  1
 33 30  1  6
 30 38  1  0
 34 31  1  6
 31 39  1  0
 35 32  1  1
 32 40  1  0
 41 43  1  0
 15 19  2  0
 42 43  2  0
 16 22  2  0
 12 17  1  1
 17 19  1  0
 17 20  1  0
 18 19  1  0
 18 22  1  0
 18 23  1  0
  9 10  1  0
  9 11  1  0
 10 12  1  0
 11  5  1  1
 33 34  1  0
 33 35  1  0
 34 36  1  0
 35 37  1  0
 37 43  1  1
 20 21  2  0
 21 22  1  0
M  CHG  3   2  -1  26  -1  41  -1
M  END
>  <COMPND>  (55) 
    udp_gluA.pdb 

>  <AUTHOR>  (55) 
    GENERATED BY OPEN BABEL 3.1.1

>  <MASTER>  (55) 
        0    0    0    0    0    0    0    0   56    0   56    0

>  <minimizedAffinity>  (55) 
-7.74353

>  <CNNscore>  (55) 
0.4150160551

>  <CNNaffinity>  (55) 
3.9135081768

>  <CNN_VS>  (55) 
1.6241687536

>  <CNNaffinity_variance>  (55) 
0.8384132385

$$$$
56
     RDKit          3D

 43 45  0  0  0  0  0  0  0  0999 V2000
   19.0704   70.7594   -1.7315 P   0  0  2  0  0  0  0  0  0  0  0  0
   19.5531   69.5155   -0.8158 O   0  0  0  0  0  0  0  0  0  0  0  0
   20.0626   71.2088   -2.7637 O   0  0  0  0  0  0  0  0  0  0  0  0
   18.6182   71.8808   -0.6564 O   0  0  0  0  0  0  0  0  0  0  0  0
   18.4380   73.2121   -1.1033 C   0  0  0  0  0  0  0  0  0  0  0  0
   20.5633   73.4828   -0.0134 O   0  0  0  0  0  0  0  0  0  0  0  0
   19.9497   76.4173    0.0455 O   0  0  0  0  0  0  0  0  0  0  0  0
   21.6692   76.2103   -2.0608 O   0  0  0  0  0  0  0  0  0  0  0  0
   19.6404   75.4495   -0.9576 C   0  0  1  0  0  0  0  0  0  0  0  0
   20.8877   75.0807   -1.7324 C   0  0  2  0  0  0  0  0  0  0  0  0
   19.3010   74.1402   -0.2582 C   0  0  1  0  0  0  0  0  0  0  0  0
   21.5925   74.1425   -0.7676 C   0  0  2  0  0  0  0  0  0  0  0  0
   20.1698   77.2626   -0.3773 H   0  0  0  0  0  0  0  0  0  0  0  0
   21.1770   76.7759   -2.6771 H   0  0  0  0  0  0  0  0  0  0  0  0
   23.0779   72.1242    0.5349 O   0  0  0  0  0  0  0  0  0  0  0  0
   24.5875   70.4000   -3.4642 O   0  0  0  0  0  0  0  0  0  0  0  0
   22.3826   73.1530   -1.4441 N   0  0  0  0  0  0  0  0  0  0  0  0
   23.8292   71.2680   -1.4581 N   0  0  0  0  0  0  0  0  0  0  0  0
   23.0909   72.1831   -0.6961 C   0  0  0  0  0  0  0  0  0  0  0  0
   22.4489   73.1487   -2.8321 C   0  0  0  0  0  0  0  0  0  0  0  0
   23.1568   72.2699   -3.5445 C   0  0  0  0  0  0  0  0  0  0  0  0
   23.9264   71.2240   -2.8395 C   0  0  0  0  0  0  0  0  0  0  0  0
   24.3324   70.5844   -0.9594 H   0  0  0  0  0  0  0  0  0  0  0  0
   17.6614   70.2427   -2.3320 O   0  0  0  0  0  0  0  0  0  0  0  0
   17.3312   69.1269   -3.4543 P   0  0  2  0  0  0  0  0  0  0  0  0
   15.7160   69.1689   -3.5536 O   0  0  0  0  0  0  0  0  0  0  0  0
   17.8974   67.7685   -3.1575 O   0  0  0  0  0  0  0  0  0  0  0  0
   17.8414   69.7766   -4.8400 O   0  0  0  0  0  0  0  0  0  0  0  0
   18.4552   72.0234   -5.2697 O   0  0  0  0  0  0  0  0  0  0  0  0
   17.0462   70.8160   -8.9610 O   0  0  0  0  0  0  0  0  0  0  0  0
   15.6396   70.0526   -6.5169 O   0  0  0  0  0  0  0  0  0  0  0  0
   19.9055   71.0720   -8.5029 O   0  0  0  0  0  0  0  0  0  0  0  0
   17.6761   70.6547   -7.6901 C   0  0  2  0  0  0  0  0  0  0  0  0
   16.6879   71.0128   -6.5799 C   0  0  2  0  0  0  0  0  0  0  0  0
   18.8902   71.5851   -7.6425 C   0  0  1  0  0  0  0  0  0  0  0  0
   17.3890   71.0744   -5.2222 C   0  0  1  0  0  0  0  0  0  0  0  0
   19.4560   71.6907   -6.2293 C   0  0  1  0  0  0  0  0  0  0  0  0
   16.2716   70.2343   -9.0143 H   0  0  0  0  0  0  0  0  0  0  0  0
   15.1905   70.0081   -7.3753 H   0  0  0  0  0  0  0  0  0  0  0  0
   19.5581   70.9997   -9.4057 H   0  0  0  0  0  0  0  0  0  0  0  0
   21.5459   72.5737   -6.8245 O   0  0  0  0  0  0  0  0  0  0  0  0
   20.2108   73.8634   -5.5004 O   0  0  0  0  0  0  0  0  0  0  0  0
   20.4134   72.8331   -6.1252 C   0  0  0  0  0  0  0  0  0  0  0  0
  1  4  1  0
  1 24  1  0
  1  2  1  1
  1  3  2  0
 25 28  1  0
 25 24  1  0
 25 26  1  6
 25 27  2  0
  6 11  1  0
  6 12  1  0
 29 36  1  0
 29 37  1  0
  9  7  1  1
  7 13  1  0
 10  8  1  1
  8 14  1  0
  4  5  1  0
 36 28  1  6
 33 30  1  6
 30 38  1  0
 34 31  1  1
 31 39  1  0
 35 32  1  6
 32 40  1  0
 41 43  1  0
 15 19  2  0
 42 43  2  0
 16 22  2  0
 12 17  1  6
 17 19  1  0
 17 20  1  0
 18 19  1  0
 18 22  1  0
 18 23  1  0
  9 10  1  0
  9 11  1  0
 10 12  1  0
 11  5  1  6
 33 34  1  0
 33 35  1  0
 34 36  1  0
 35 37  1  0
 37 43  1  6
 20 21  2  0
 21 22  1  0
M  CHG  3   2  -1  26  -1  41  -1
M  END
>  <COMPND>  (56) 
    udp_gluA.pdb 

>  <AUTHOR>  (56) 
    GENERATED BY OPEN BABEL 3.1.1

>  <MASTER>  (56) 
        0    0    0    0    0    0    0    0   56    0   56    0

>  <minimizedAffinity>  (56) 
-7.36129

>  <CNNscore>  (56) 
0.4035077989

>  <CNNaffinity>  (56) 
4.0647573471

>  <CNN_VS>  (56) 
1.6401612759

>  <CNNaffinity_variance>  (56) 
0.4981099963

$$$$
57
     RDKit          3D

 43 45  0  0  0  0  0  0  0  0999 V2000
   17.4380   68.9832   -4.0620 P   0  0  2  0  0  0  0  0  0  0  0  0
   16.9598   67.4402   -3.9653 O   0  0  0  0  0  0  0  0  0  0  0  0
   16.3540   69.9974   -3.8423 O   0  0  0  0  0  0  0  0  0  0  0  0
   18.1988   69.0656   -5.4876 O   0  0  0  0  0  0  0  0  0  0  0  0
   18.2465   70.3120   -6.1575 C   0  0  0  0  0  0  0  0  0  0  0  0
   16.2337   70.5151   -7.4555 O   0  0  0  0  0  0  0  0  0  0  0  0
   18.0122   70.5163   -9.8698 O   0  0  0  0  0  0  0  0  0  0  0  0
   17.4303   73.1620   -9.5571 O   0  0  0  0  0  0  0  0  0  0  0  0
   18.2382   71.0869   -8.5807 C   0  0  1  0  0  0  0  0  0  0  0  0
   17.4061   72.3400   -8.4089 C   0  0  2  0  0  0  0  0  0  0  0  0
   17.6296   70.1553   -7.5414 C   0  0  1  0  0  0  0  0  0  0  0  0
   16.0273   71.7670   -8.1289 C   0  0  2  0  0  0  0  0  0  0  0  0
   18.3923   71.0939  -10.5506 H   0  0  0  0  0  0  0  0  0  0  0  0
   18.3292   73.5021   -9.6923 H   0  0  0  0  0  0  0  0  0  0  0  0
   14.3049   73.7901   -9.0866 O   0  0  0  0  0  0  0  0  0  0  0  0
   13.0473   74.9936   -4.8188 O   0  0  0  0  0  0  0  0  0  0  0  0
   15.2379   72.6238   -7.2900 N   0  0  0  0  0  0  0  0  0  0  0  0
   13.6810   74.3883   -6.9600 N   0  0  0  0  0  0  0  0  0  0  0  0
   14.4051   73.6088   -7.8717 C   0  0  0  0  0  0  0  0  0  0  0  0
   15.2918   72.4831   -5.9086 C   0  0  0  0  0  0  0  0  0  0  0  0
   14.5956   73.2334   -5.0525 C   0  0  0  0  0  0  0  0  0  0  0  0
   13.7021   74.2862   -5.5785 C   0  0  0  0  0  0  0  0  0  0  0  0
   13.0957   75.0821   -7.3413 H   0  0  0  0  0  0  0  0  0  0  0  0
   18.6523   69.0543   -2.9974 O   0  0  0  0  0  0  0  0  0  0  0  0
   18.9789   70.1236   -1.8296 P   0  0  2  0  0  0  0  0  0  0  0  0
   20.0101   69.3228   -0.8728 O   0  0  0  0  0  0  0  0  0  0  0  0
   17.7649   70.6542   -1.1234 O   0  0  0  0  0  0  0  0  0  0  0  0
   19.8818   71.2511   -2.5479 O   0  0  0  0  0  0  0  0  0  0  0  0
   22.0317   71.5044   -1.5874 O   0  0  0  0  0  0  0  0  0  0  0  0
   21.8966   74.7013   -4.2007 O   0  0  0  0  0  0  0  0  0  0  0  0
   19.5654   74.0142   -2.5797 O   0  0  0  0  0  0  0  0  0  0  0  0
   23.4617   72.3422   -4.8608 O   0  0  0  0  0  0  0  0  0  0  0  0
   21.6020   73.3835   -3.7374 C   0  0  2  0  0  0  0  0  0  0  0  0
   20.8652   73.4639   -2.4002 C   0  0  2  0  0  0  0  0  0  0  0  0
   22.9257   72.6336   -3.5716 C   0  0  1  0  0  0  0  0  0  0  0  0
   20.7365   72.0799   -1.7624 C   0  0  1  0  0  0  0  0  0  0  0  0
   22.7321   71.3221   -2.8159 C   0  0  1  0  0  0  0  0  0  0  0  0
   21.0701   75.1969   -4.3135 H   0  0  0  0  0  0  0  0  0  0  0  0
   19.6395   74.8924   -2.9843 H   0  0  0  0  0  0  0  0  0  0  0  0
   23.5896   73.1686   -5.3522 H   0  0  0  0  0  0  0  0  0  0  0  0
   24.1776   70.8610   -1.0272 O   0  0  0  0  0  0  0  0  0  0  0  0
   24.8908   70.2870   -3.1155 O   0  0  0  0  0  0  0  0  0  0  0  0
   24.0463   70.7658   -2.3736 C   0  0  0  0  0  0  0  0  0  0  0  0
  1  4  1  0
  1 24  1  0
  1  2  1  6
  1  3  2  0
 25 28  1  0
 25 24  1  0
 25 26  1  1
 25 27  2  0
  6 11  1  0
  6 12  1  0
 29 36  1  0
 29 37  1  0
  9  7  1  6
  7 13  1  0
 10  8  1  6
  8 14  1  0
  4  5  1  0
 36 28  1  6
 33 30  1  1
 30 38  1  0
 34 31  1  6
 31 39  1  0
 35 32  1  6
 32 40  1  0
 41 43  1  0
 15 19  2  0
 42 43  2  0
 16 22  2  0
 12 17  1  1
 17 19  1  0
 17 20  1  0
 18 19  1  0
 18 22  1  0
 18 23  1  0
  9 10  1  0
  9 11  1  0
 10 12  1  0
 11  5  1  1
 33 34  1  0
 33 35  1  0
 34 36  1  0
 35 37  1  0
 37 43  1  1
 20 21  2  0
 21 22  1  0
M  CHG  3   2  -1  26  -1  41  -1
M  END
>  <COMPND>  (57) 
    udp_gluA.pdb 

>  <AUTHOR>  (57) 
    GENERATED BY OPEN BABEL 3.1.1

>  <MASTER>  (57) 
        0    0    0    0    0    0    0    0   56    0   56    0

>  <minimizedAffinity>  (57) 
-8.08588

>  <CNNscore>  (57) 
0.3963983655

>  <CNNaffinity>  (57) 
4.2661523819

>  <CNN_VS>  (57) 
1.6910958290

>  <CNNaffinity_variance>  (57) 
0.1368953288

$$$$
58
     RDKit          3D

 43 45  0  0  0  0  0  0  0  0999 V2000
   21.7191   70.9497   -2.5524 P   0  0  2  0  0  0  0  0  0  0  0  0
   23.2286   70.6882   -3.0737 O   0  0  0  0  0  0  0  0  0  0  0  0
   21.4510   70.5119   -1.1423 O   0  0  0  0  0  0  0  0  0  0  0  0
   20.7918   70.2663   -3.6886 O   0  0  0  0  0  0  0  0  0  0  0  0
   20.0474   69.1109   -3.3489 C   0  0  0  0  0  0  0  0  0  0  0  0
   18.1767   70.4110   -4.1157 O   0  0  0  0  0  0  0  0  0  0  0  0
   16.4896   68.6974   -2.3244 O   0  0  0  0  0  0  0  0  0  0  0  0
   16.0440   67.6076   -4.7840 O   0  0  0  0  0  0  0  0  0  0  0  0
   17.6354   68.3415   -3.0984 C   0  0  1  0  0  0  0  0  0  0  0  0
   17.2736   68.2675   -4.5667 C   0  0  2  0  0  0  0  0  0  0  0  0
   18.6056   69.5145   -3.0681 C   0  0  1  0  0  0  0  0  0  0  0  0
   17.2257   69.7357   -4.9541 C   0  0  2  0  0  0  0  0  0  0  0  0
   15.8551   67.9632   -2.3290 H   0  0  0  0  0  0  0  0  0  0  0  0
   16.1262   66.6765   -4.5224 H   0  0  0  0  0  0  0  0  0  0  0  0
   15.6565   71.1953   -6.7937 O   0  0  0  0  0  0  0  0  0  0  0  0
   18.6792   70.4998  -10.2030 O   0  0  0  0  0  0  0  0  0  0  0  0
   17.5789   69.9515   -6.3287 N   0  0  0  0  0  0  0  0  0  0  0  0
   17.1630   70.8466   -8.4902 N   0  0  0  0  0  0  0  0  0  0  0  0
   16.7205   70.6993   -7.1690 C   0  0  0  0  0  0  0  0  0  0  0  0
   18.7638   69.4273   -6.8309 C   0  0  0  0  0  0  0  0  0  0  0  0
   19.1722   69.5762   -8.0925 C   0  0  0  0  0  0  0  0  0  0  0  0
   18.3328   70.3434   -9.0360 C   0  0  0  0  0  0  0  0  0  0  0  0
   16.5811   71.3616   -9.0947 H   0  0  0  0  0  0  0  0  0  0  0  0
   21.5125   72.5309   -2.8173 O   0  0  0  0  0  0  0  0  0  0  0  0
   20.2477   73.4978   -2.5362 P   0  0  2  0  0  0  0  0  0  0  0  0
   20.8962   74.7204   -1.6966 O   0  0  0  0  0  0  0  0  0  0  0  0
   19.0951   72.8210   -1.8526 O   0  0  0  0  0  0  0  0  0  0  0  0
   19.8922   74.1353   -3.9749 O   0  0  0  0  0  0  0  0  0  0  0  0
   18.5911   73.3364   -5.7855 O   0  0  0  0  0  0  0  0  0  0  0  0
   21.6108   75.3601   -7.7486 O   0  0  0  0  0  0  0  0  0  0  0  0
   22.2143   73.6795   -5.4365 O   0  0  0  0  0  0  0  0  0  0  0  0
   18.9606   76.5366   -7.5416 O   0  0  0  0  0  0  0  0  0  0  0  0
   20.6940   75.0985   -6.6861 C   0  0  2  0  0  0  0  0  0  0  0  0
   20.9613   73.7076   -6.1103 C   0  0  2  0  0  0  0  0  0  0  0  0
   19.2757   75.1753   -7.2556 C   0  0  1  0  0  0  0  0  0  0  0  0
   19.8598   73.3001   -5.1308 C   0  0  1  0  0  0  0  0  0  0  0  0
   18.2479   74.6343   -6.2658 C   0  0  1  0  0  0  0  0  0  0  0  0
   22.5191   75.3166   -7.4103 H   0  0  0  0  0  0  0  0  0  0  0  0
   22.9178   73.9374   -6.0520 H   0  0  0  0  0  0  0  0  0  0  0  0
   19.6075   76.8930   -8.1704 H   0  0  0  0  0  0  0  0  0  0  0  0
   17.1138   74.0332   -8.2290 O   0  0  0  0  0  0  0  0  0  0  0  0
   15.8413   74.5341   -6.4045 O   0  0  0  0  0  0  0  0  0  0  0  0
   16.9331   74.4064   -6.9379 C   0  0  0  0  0  0  0  0  0  0  0  0
  1  4  1  0
  1 24  1  0
  1  2  1  6
  1  3  2  0
 25 28  1  0
 25 24  1  0
 25 26  1  1
 25 27  2  0
  6 11  1  0
  6 12  1  0
 29 36  1  0
 29 37  1  0
  9  7  1  1
  7 13  1  0
 10  8  1  1
  8 14  1  0
  4  5  1  0
 36 28  1  1
 33 30  1  6
 30 38  1  0
 34 31  1  1
 31 39  1  0
 35 32  1  1
 32 40  1  0
 41 43  1  0
 15 19  2  0
 42 43  2  0
 16 22  2  0
 12 17  1  6
 17 19  1  0
 17 20  1  0
 18 19  1  0
 18 22  1  0
 18 23  1  0
  9 10  1  0
  9 11  1  0
 10 12  1  0
 11  5  1  6
 33 34  1  0
 33 35  1  0
 34 36  1  0
 35 37  1  0
 37 43  1  6
 20 21  2  0
 21 22  1  0
M  CHG  3   2  -1  26  -1  41  -1
M  END
>  <COMPND>  (58) 
    udp_gluA.pdb 

>  <AUTHOR>  (58) 
    GENERATED BY OPEN BABEL 3.1.1

>  <MASTER>  (58) 
        0    0    0    0    0    0    0    0   56    0   56    0

>  <minimizedAffinity>  (58) 
-6.92584

>  <CNNscore>  (58) 
0.3921841085

>  <CNNaffinity>  (58) 
4.1626949310

>  <CNN_VS>  (58) 
1.6325428486

>  <CNNaffinity_variance>  (58) 
0.6692318916

$$$$
59
     RDKit          3D

 43 45  0  0  0  0  0  0  0  0999 V2000
   16.0880   70.3504   -2.5598 P   0  0  2  0  0  0  0  0  0  0  0  0
   15.6907   70.9379   -4.0144 O   0  0  0  0  0  0  0  0  0  0  0  0
   15.1624   69.2958   -2.0281 O   0  0  0  0  0  0  0  0  0  0  0  0
   16.2516   71.6708   -1.6390 O   0  0  0  0  0  0  0  0  0  0  0  0
   17.4799   72.3738   -1.6773 C   0  0  0  0  0  0  0  0  0  0  0  0
   19.1573   71.8230   -0.0461 O   0  0  0  0  0  0  0  0  0  0  0  0
   18.2647   74.2774    1.4274 O   0  0  0  0  0  0  0  0  0  0  0  0
   20.5352   75.1254    0.1776 O   0  0  0  0  0  0  0  0  0  0  0  0
   18.3590   74.0522    0.0206 C   0  0  1  0  0  0  0  0  0  0  0  0
   19.8082   74.0707   -0.4172 C   0  0  2  0  0  0  0  0  0  0  0  0
   17.9624   72.6075   -0.2515 C   0  0  1  0  0  0  0  0  0  0  0  0
   20.2908   72.7019    0.0316 C   0  0  2  0  0  0  0  0  0  0  0  0
   18.5134   75.1942    1.6258 H   0  0  0  0  0  0  0  0  0  0  0  0
   20.1903   75.9752   -0.1401 H   0  0  0  0  0  0  0  0  0  0  0  0
   22.9850   72.4298    0.8341 O   0  0  0  0  0  0  0  0  0  0  0  0
   24.2232   70.7202   -3.2632 O   0  0  0  0  0  0  0  0  0  0  0  0
   21.3380   72.1885   -0.8054 N   0  0  0  0  0  0  0  0  0  0  0  0
   23.5993   71.5795   -1.2077 N   0  0  0  0  0  0  0  0  0  0  0  0
   22.6583   72.0931   -0.3056 C   0  0  0  0  0  0  0  0  0  0  0  0
   21.0528   71.7846   -2.1040 C   0  0  0  0  0  0  0  0  0  0  0  0
   21.9603   71.2969   -2.9521 C   0  0  0  0  0  0  0  0  0  0  0  0
   23.3637   71.1653   -2.5087 C   0  0  0  0  0  0  0  0  0  0  0  0
   24.5258   71.5056   -0.8831 H   0  0  0  0  0  0  0  0  0  0  0  0
   17.6146   69.8626   -2.7701 O   0  0  0  0  0  0  0  0  0  0  0  0
   18.4309   69.4782   -4.1116 P   0  0  2  0  0  0  0  0  0  0  0  0
   17.3704   68.5846   -4.9465 O   0  0  0  0  0  0  0  0  0  0  0  0
   19.7468   68.8010   -3.8590 O   0  0  0  0  0  0  0  0  0  0  0  0
   18.5369   70.8606   -4.9364 O   0  0  0  0  0  0  0  0  0  0  0  0
   19.6550   70.3041   -6.9486 O   0  0  0  0  0  0  0  0  0  0  0  0
   18.7808   74.2970   -7.5491 O   0  0  0  0  0  0  0  0  0  0  0  0
   19.7443   73.3662   -4.9530 O   0  0  0  0  0  0  0  0  0  0  0  0
   17.2304   72.2442   -8.9031 O   0  0  0  0  0  0  0  0  0  0  0  0
   18.5717   72.9793   -7.0415 C   0  0  2  0  0  0  0  0  0  0  0  0
   19.7439   72.5852   -6.1425 C   0  0  2  0  0  0  0  0  0  0  0  0
   18.4701   72.0241   -8.2328 C   0  0  1  0  0  0  0  0  0  0  0  0
   19.6712   71.1047   -5.7661 C   0  0  1  0  0  0  0  0  0  0  0  0
   18.5304   70.5666   -7.7850 C   0  0  1  0  0  0  0  0  0  0  0  0
   18.8486   74.9216   -6.8098 H   0  0  0  0  0  0  0  0  0  0  0  0
   19.7900   74.3068   -5.1844 H   0  0  0  0  0  0  0  0  0  0  0  0
   17.1793   73.1684   -9.1931 H   0  0  0  0  0  0  0  0  0  0  0  0
   19.5878   68.6426   -8.6105 O   0  0  0  0  0  0  0  0  0  0  0  0
   18.2754   69.8122  -10.0625 O   0  0  0  0  0  0  0  0  0  0  0  0
   18.7616   69.6623   -8.9516 C   0  0  0  0  0  0  0  0  0  0  0  0
  1  4  1  0
  1 24  1  0
  1  2  1  6
  1  3  2  0
 25 28  1  0
 25 24  1  0
 25 26  1  6
 25 27  2  0
  6 11  1  0
  6 12  1  0
 29 36  1  0
 29 37  1  0
  9  7  1  1
  7 13  1  0
 10  8  1  1
  8 14  1  0
  4  5  1  0
 36 28  1  6
 33 30  1  6
 30 38  1  0
 34 31  1  1
 31 39  1  0
 35 32  1  1
 32 40  1  0
 41 43  1  0
 15 19  2  0
 42 43  2  0
 16 22  2  0
 12 17  1  6
 17 19  1  0
 17 20  1  0
 18 19  1  0
 18 22  1  0
 18 23  1  0
  9 10  1  0
  9 11  1  0
 10 12  1  0
 11  5  1  6
 33 34  1  0
 33 35  1  0
 34 36  1  0
 35 37  1  0
 37 43  1  6
 20 21  2  0
 21 22  1  0
M  CHG  3   2  -1  26  -1  41  -1
M  END
>  <COMPND>  (59) 
    udp_gluA.pdb 

>  <AUTHOR>  (59) 
    GENERATED BY OPEN BABEL 3.1.1

>  <MASTER>  (59) 
        0    0    0    0    0    0    0    0   56    0   56    0

>  <minimizedAffinity>  (59) 
-8.17363

>  <CNNscore>  (59) 
0.3596348763

>  <CNNaffinity>  (59) 
4.0362768173

>  <CNN_VS>  (59) 
1.4515858889

>  <CNNaffinity_variance>  (59) 
0.2956456542

$$$$
60
     RDKit          3D

 43 45  0  0  0  0  0  0  0  0999 V2000
   18.5619   69.5867   -2.1566 P   0  0  2  0  0  0  0  0  0  0  0  0
   17.4212   68.4482   -2.0097 O   0  0  0  0  0  0  0  0  0  0  0  0
   19.9708   69.0714   -2.1893 O   0  0  0  0  0  0  0  0  0  0  0  0
   18.2232   70.6315   -0.9684 O   0  0  0  0  0  0  0  0  0  0  0  0
   17.6907   71.8974   -1.3126 C   0  0  0  0  0  0  0  0  0  0  0  0
   19.5927   72.5469    0.0057 O   0  0  0  0  0  0  0  0  0  0  0  0
   18.3952   75.2958    0.0411 O   0  0  0  0  0  0  0  0  0  0  0  0
   20.3296   75.5130   -1.8686 O   0  0  0  0  0  0  0  0  0  0  0  0
   18.3937   74.3228   -1.0038 C   0  0  1  0  0  0  0  0  0  0  0  0
   19.7632   74.2390   -1.6439 C   0  0  2  0  0  0  0  0  0  0  0  0
   18.2558   72.9476   -0.3650 C   0  0  1  0  0  0  0  0  0  0  0  0
   20.5396   73.4258   -0.6223 C   0  0  2  0  0  0  0  0  0  0  0  0
   18.4824   76.1828   -0.3427 H   0  0  0  0  0  0  0  0  0  0  0  0
   19.7996   75.9910   -2.5263 H   0  0  0  0  0  0  0  0  0  0  0  0
   22.8043   72.4539    0.7573 O   0  0  0  0  0  0  0  0  0  0  0  0
   24.4646   70.4185   -3.0301 O   0  0  0  0  0  0  0  0  0  0  0  0
   21.5792   72.6393   -1.2235 N   0  0  0  0  0  0  0  0  0  0  0  0
   23.6296   71.4419   -1.1306 N   0  0  0  0  0  0  0  0  0  0  0  0
   22.6743   72.2011   -0.4420 C   0  0  0  0  0  0  0  0  0  0  0  0
   21.5072   72.3084   -2.5712 C   0  0  0  0  0  0  0  0  0  0  0  0
   22.4255   71.5839   -3.2137 C   0  0  0  0  0  0  0  0  0  0  0  0
   23.6019   71.0878   -2.4698 C   0  0  0  0  0  0  0  0  0  0  0  0
   24.4023   71.1273   -0.6079 H   0  0  0  0  0  0  0  0  0  0  0  0
   18.1067   70.3872   -3.4851 O   0  0  0  0  0  0  0  0  0  0  0  0
   18.2071   69.9916   -5.0494 P   0  0  2  0  0  0  0  0  0  0  0  0
   16.9327   69.0175   -5.2671 O   0  0  0  0  0  0  0  0  0  0  0  0
   19.5223   69.3876   -5.4486 O   0  0  0  0  0  0  0  0  0  0  0  0
   17.8246   71.3452   -5.8393 O   0  0  0  0  0  0  0  0  0  0  0  0
   16.9447   73.3899   -5.0305 O   0  0  0  0  0  0  0  0  0  0  0  0
   15.2514   73.1755   -8.7929 O   0  0  0  0  0  0  0  0  0  0  0  0
   15.4071   70.7987   -7.1014 O   0  0  0  0  0  0  0  0  0  0  0  0
   17.4762   74.9792   -8.2946 O   0  0  0  0  0  0  0  0  0  0  0  0
   16.2563   72.9607   -7.8019 C   0  0  2  0  0  0  0  0  0  0  0  0
   15.6786   72.1240   -6.6601 C   0  0  2  0  0  0  0  0  0  0  0  0
   16.7094   74.3275   -7.2837 C   0  0  1  0  0  0  0  0  0  0  0  0
   16.6482   72.0668   -5.4788 C   0  0  1  0  0  0  0  0  0  0  0  0
   17.5697   74.1911   -6.0308 C   0  0  1  0  0  0  0  0  0  0  0  0
   14.9482   72.3205   -9.1367 H   0  0  0  0  0  0  0  0  0  0  0  0
   14.7927   70.8275   -7.8510 H   0  0  0  0  0  0  0  0  0  0  0  0
   16.9401   75.0721   -9.0976 H   0  0  0  0  0  0  0  0  0  0  0  0
   16.8898   76.4314   -5.8874 O   0  0  0  0  0  0  0  0  0  0  0  0
   18.5064   75.7400   -4.4356 O   0  0  0  0  0  0  0  0  0  0  0  0
   17.7299   75.5119   -5.3510 C   0  0  0  0  0  0  0  0  0  0  0  0
  1  4  1  0
  1 24  1  0
  1  2  1  1
  1  3  2  0
 25 28  1  0
 25 24  1  0
 25 26  1  1
 25 27  2  0
  6 11  1  0
  6 12  1  0
 29 36  1  0
 29 37  1  0
  9  7  1  1
  7 13  1  0
 10  8  1  1
  8 14  1  0
  4  5  1  0
 36 28  1  6
 33 30  1  6
 30 38  1  0
 34 31  1  6
 31 39  1  0
 35 32  1  6
 32 40  1  0
 41 43  1  0
 15 19  2  0
 42 43  2  0
 16 22  2  0
 12 17  1  6
 17 19  1  0
 17 20  1  0
 18 19  1  0
 18 22  1  0
 18 23  1  0
  9 10  1  0
  9 11  1  0
 10 12  1  0
 11  5  1  6
 33 34  1  0
 33 35  1  0
 34 36  1  0
 35 37  1  0
 37 43  1  1
 20 21  2  0
 21 22  1  0
M  CHG  3   2  -1  26  -1  41  -1
M  END
>  <COMPND>  (60) 
    udp_gluA.pdb 

>  <AUTHOR>  (60) 
    GENERATED BY OPEN BABEL 3.1.1

>  <MASTER>  (60) 
        0    0    0    0    0    0    0    0   56    0   56    0

>  <minimizedAffinity>  (60) 
-6.76675

>  <CNNscore>  (60) 
0.3546424210

>  <CNNaffinity>  (60) 
3.8046829700

>  <CNN_VS>  (60) 
1.3493019342

>  <CNNaffinity_variance>  (60) 
0.4143560827

$$$$
61
     RDKit          3D

 43 45  0  0  0  0  0  0  0  0999 V2000
   21.0228   71.5352   -3.4272 P   0  0  2  0  0  0  0  0  0  0  0  0
   20.1193   72.6254   -2.6437 O   0  0  0  0  0  0  0  0  0  0  0  0
   20.8713   71.5421   -4.9201 O   0  0  0  0  0  0  0  0  0  0  0  0
   20.6702   70.1378   -2.6917 O   0  0  0  0  0  0  0  0  0  0  0  0
   19.8672   69.1958   -3.3789 C   0  0  0  0  0  0  0  0  0  0  0  0
   17.9725   70.4126   -4.2198 O   0  0  0  0  0  0  0  0  0  0  0  0
   16.2944   68.6301   -2.4882 O   0  0  0  0  0  0  0  0  0  0  0  0
   15.9898   67.5185   -4.9596 O   0  0  0  0  0  0  0  0  0  0  0  0
   17.4830   68.3230   -3.2173 C   0  0  1  0  0  0  0  0  0  0  0  0
   17.1806   68.2314   -4.6980 C   0  0  2  0  0  0  0  0  0  0  0  0
   18.3998   69.5370   -3.1539 C   0  0  1  0  0  0  0  0  0  0  0  0
   17.0840   69.6956   -5.0914 C   0  0  2  0  0  0  0  0  0  0  0  0
   15.6929   67.8691   -2.5145 H   0  0  0  0  0  0  0  0  0  0  0  0
   16.1022   66.5923   -4.6922 H   0  0  0  0  0  0  0  0  0  0  0  0
   15.6492   71.2993   -6.9206 O   0  0  0  0  0  0  0  0  0  0  0  0
   18.6944   70.5034  -10.2877 O   0  0  0  0  0  0  0  0  0  0  0  0
   17.4793   69.9246   -6.4523 N   0  0  0  0  0  0  0  0  0  0  0  0
   17.1667   70.9006   -8.5961 N   0  0  0  0  0  0  0  0  0  0  0  0
   16.6877   70.7469   -7.2885 C   0  0  0  0  0  0  0  0  0  0  0  0
   18.6394   69.3397   -6.9453 C   0  0  0  0  0  0  0  0  0  0  0  0
   19.0833   69.4955   -8.1941 C   0  0  0  0  0  0  0  0  0  0  0  0
   18.3140   70.3388   -9.1325 C   0  0  0  0  0  0  0  0  0  0  0  0
   16.6313   71.4671   -9.1976 H   0  0  0  0  0  0  0  0  0  0  0  0
   22.5169   71.8562   -2.9005 O   0  0  0  0  0  0  0  0  0  0  0  0
   23.1428   71.8421   -1.4100 P   0  0  2  0  0  0  0  0  0  0  0  0
   24.4776   70.9419   -1.5778 O   0  0  0  0  0  0  0  0  0  0  0  0
   22.1978   71.3552   -0.3498 O   0  0  0  0  0  0  0  0  0  0  0  0
   23.6897   73.3425   -1.1815 O   0  0  0  0  0  0  0  0  0  0  0  0
   23.3395   74.8914    0.5756 O   0  0  0  0  0  0  0  0  0  0  0  0
   23.5708   77.3855   -2.7098 O   0  0  0  0  0  0  0  0  0  0  0  0
   22.0844   74.8749   -2.8582 O   0  0  0  0  0  0  0  0  0  0  0  0
   25.8130   77.1832   -0.8706 O   0  0  0  0  0  0  0  0  0  0  0  0
   23.8697   76.2290   -1.9280 C   0  0  2  0  0  0  0  0  0  0  0  0
   22.5833   75.4490   -1.6556 C   0  0  2  0  0  0  0  0  0  0  0  0
   24.4973   76.6965   -0.6129 C   0  0  1  0  0  0  0  0  0  0  0  0
   22.8241   74.3359   -0.6348 C   0  0  1  0  0  0  0  0  0  0  0  0
   24.5881   75.5564    0.3973 C   0  0  1  0  0  0  0  0  0  0  0  0
   23.1708   77.1130   -3.5507 H   0  0  0  0  0  0  0  0  0  0  0  0
   21.9296   75.5755   -3.5105 H   0  0  0  0  0  0  0  0  0  0  0  0
   25.7692   77.9093   -1.5123 H   0  0  0  0  0  0  0  0  0  0  0  0
   23.8712   76.8611    2.2099 O   0  0  0  0  0  0  0  0  0  0  0  0
   25.9027   75.8433    2.4000 O   0  0  0  0  0  0  0  0  0  0  0  0
   24.8869   76.0811    1.7639 C   0  0  0  0  0  0  0  0  0  0  0  0
  1  4  1  0
  1 24  1  0
  1  2  1  1
  1  3  2  0
 25 28  1  0
 25 24  1  0
 25 26  1  6
 25 27  2  0
  6 11  1  0
  6 12  1  0
 29 36  1  0
 29 37  1  0
  9  7  1  1
  7 13  1  0
 10  8  1  1
  8 14  1  0
  4  5  1  0
 36 28  1  6
 33 30  1  6
 30 38  1  0
 34 31  1  6
 31 39  1  0
 35 32  1  6
 32 40  1  0
 41 43  1  0
 15 19  2  0
 42 43  2  0
 16 22  2  0
 12 17  1  6
 17 19  1  0
 17 20  1  0
 18 19  1  0
 18 22  1  0
 18 23  1  0
  9 10  1  0
  9 11  1  0
 10 12  1  0
 11  5  1  6
 33 34  1  0
 33 35  1  0
 34 36  1  0
 35 37  1  0
 37 43  1  1
 20 21  2  0
 21 22  1  0
M  CHG  3   2  -1  26  -1  41  -1
M  END
>  <COMPND>  (61) 
    udp_gluA.pdb 

>  <AUTHOR>  (61) 
    GENERATED BY OPEN BABEL 3.1.1

>  <MASTER>  (61) 
        0    0    0    0    0    0    0    0   56    0   56    0

>  <minimizedAffinity>  (61) 
-7.67030

>  <CNNscore>  (61) 
0.7357519269

>  <CNNaffinity>  (61) 
4.5923132896

>  <CNN_VS>  (61) 
3.3788032532

>  <CNNaffinity_variance>  (61) 
0.0097975312

$$$$
62
     RDKit          3D

 43 45  0  0  0  0  0  0  0  0999 V2000
   20.5293   70.5539   -1.6679 P   0  0  2  0  0  0  0  0  0  0  0  0
   20.2018   69.3359   -0.6538 O   0  0  0  0  0  0  0  0  0  0  0  0
   19.7639   71.8181   -1.4077 O   0  0  0  0  0  0  0  0  0  0  0  0
   20.3309   69.9017   -3.1353 O   0  0  0  0  0  0  0  0  0  0  0  0
   19.4335   68.8158   -3.2768 C   0  0  0  0  0  0  0  0  0  0  0  0
   17.7504   70.2830   -4.1670 O   0  0  0  0  0  0  0  0  0  0  0  0
   15.7735   68.6631   -2.5988 O   0  0  0  0  0  0  0  0  0  0  0  0
   15.4788   67.6800   -5.1252 O   0  0  0  0  0  0  0  0  0  0  0  0
   16.9561   68.2370   -3.2760 C   0  0  1  0  0  0  0  0  0  0  0  0
   16.7299   68.2325   -4.7730 C   0  0  2  0  0  0  0  0  0  0  0  0
   18.0074   69.3267   -3.1160 C   0  0  1  0  0  0  0  0  0  0  0  0
   16.8332   69.7097   -5.1121 C   0  0  2  0  0  0  0  0  0  0  0  0
   15.0871   67.9828   -2.6871 H   0  0  0  0  0  0  0  0  0  0  0  0
   15.4632   66.7386   -4.8896 H   0  0  0  0  0  0  0  0  0  0  0  0
   15.5469   71.3156   -7.0468 O   0  0  0  0  0  0  0  0  0  0  0  0
   18.8317   70.4979  -10.1749 O   0  0  0  0  0  0  0  0  0  0  0  0
   17.3303   69.9337   -6.4401 N   0  0  0  0  0  0  0  0  0  0  0  0
   17.1836   70.9060   -8.6033 N   0  0  0  0  0  0  0  0  0  0  0  0
   16.6074   70.7576   -7.3348 C   0  0  0  0  0  0  0  0  0  0  0  0
   18.5213   69.3424   -6.8437 C   0  0  0  0  0  0  0  0  0  0  0  0
   19.0581   69.4932   -8.0561 C   0  0  0  0  0  0  0  0  0  0  0  0
   18.3652   70.3377   -9.0511 C   0  0  0  0  0  0  0  0  0  0  0  0
   16.6974   71.4735   -9.2443 H   0  0  0  0  0  0  0  0  0  0  0  0
   22.1346   70.7023   -1.5502 O   0  0  0  0  0  0  0  0  0  0  0  0
   23.1751   71.6442   -2.3527 P   0  0  2  0  0  0  0  0  0  0  0  0
   24.3966   70.6385   -2.6944 O   0  0  0  0  0  0  0  0  0  0  0  0
   23.5835   72.8831   -1.6096 O   0  0  0  0  0  0  0  0  0  0  0  0
   22.4648   71.9200   -3.7746 O   0  0  0  0  0  0  0  0  0  0  0  0
   23.0931   74.0089   -4.6969 O   0  0  0  0  0  0  0  0  0  0  0  0
   20.1740   72.7656   -7.3428 O   0  0  0  0  0  0  0  0  0  0  0  0
   19.8150   72.4066   -4.4659 O   0  0  0  0  0  0  0  0  0  0  0  0
   22.9796   72.6138   -8.0885 O   0  0  0  0  0  0  0  0  0  0  0  0
   21.2465   72.6028   -6.4148 C   0  0  2  0  0  0  0  0  0  0  0  0
   20.8448   73.1879   -5.0607 C   0  0  2  0  0  0  0  0  0  0  0  0
   22.4684   73.3375   -6.9707 C   0  0  1  0  0  0  0  0  0  0  0  0
   22.0420   73.2403   -4.1105 C   0  0  1  0  0  0  0  0  0  0  0  0
   23.5706   73.4580   -5.9223 C   0  0  1  0  0  0  0  0  0  0  0  0
   19.3862   72.3069   -7.0105 H   0  0  0  0  0  0  0  0  0  0  0  0
   19.0523   72.3689   -5.0636 H   0  0  0  0  0  0  0  0  0  0  0  0
   22.2878   72.5298   -8.7632 H   0  0  0  0  0  0  0  0  0  0  0  0
   24.6873   75.4702   -5.4688 O   0  0  0  0  0  0  0  0  0  0  0  0
   25.2923   74.3481   -7.3592 O   0  0  0  0  0  0  0  0  0  0  0  0
   24.6065   74.4450   -6.3527 C   0  0  0  0  0  0  0  0  0  0  0  0
  1  4  1  0
  1 24  1  0
  1  2  1  1
  1  3  2  0
 25 28  1  0
 25 24  1  0
 25 26  1  6
 25 27  2  0
  6 11  1  0
  6 12  1  0
 29 36  1  0
 29 37  1  0
  9  7  1  1
  7 13  1  0
 10  8  1  1
  8 14  1  0
  4  5  1  0
 36 28  1  6
 33 30  1  6
 30 38  1  0
 34 31  1  1
 31 39  1  0
 35 32  1  6
 32 40  1  0
 41 43  1  0
 15 19  2  0
 42 43  2  0
 16 22  2  0
 12 17  1  6
 17 19  1  0
 17 20  1  0
 18 19  1  0
 18 22  1  0
 18 23  1  0
  9 10  1  0
  9 11  1  0
 10 12  1  0
 11  5  1  6
 33 34  1  0
 33 35  1  0
 34 36  1  0
 35 37  1  0
 37 43  1  6
 20 21  2  0
 21 22  1  0
M  CHG  3   2  -1  26  -1  41  -1
M  END
>  <COMPND>  (62) 
    udp_gluA.pdb 

>  <AUTHOR>  (62) 
    GENERATED BY OPEN BABEL 3.1.1

>  <MASTER>  (62) 
        0    0    0    0    0    0    0    0   56    0   56    0

>  <minimizedAffinity>  (62) 
-8.71568

>  <CNNscore>  (62) 
0.6298237443

>  <CNNaffinity>  (62) 
4.5008840561

>  <CNN_VS>  (62) 
2.8347637653

>  <CNNaffinity_variance>  (62) 
0.5523170829

$$$$
63
     RDKit          3D

 43 45  0  0  0  0  0  0  0  0999 V2000
   22.5752   73.3445   -6.5767 P   0  0  2  0  0  0  0  0  0  0  0  0
   22.8969   74.3622   -7.7930 O   0  0  0  0  0  0  0  0  0  0  0  0
   23.7749   72.8833   -5.8022 O   0  0  0  0  0  0  0  0  0  0  0  0
   21.6949   72.1770   -7.2695 O   0  0  0  0  0  0  0  0  0  0  0  0
   20.2853   72.3091   -7.2801 C   0  0  0  0  0  0  0  0  0  0  0  0
   19.6865   69.9926   -7.0502 O   0  0  0  0  0  0  0  0  0  0  0  0
   17.9304   70.4010   -9.4462 O   0  0  0  0  0  0  0  0  0  0  0  0
   16.1532   70.5031   -7.3805 O   0  0  0  0  0  0  0  0  0  0  0  0
   18.2231   71.3003   -8.3765 C   0  0  1  0  0  0  0  0  0  0  0  0
   17.4899   70.8778   -7.1210 C   0  0  2  0  0  0  0  0  0  0  0  0
   19.6788   71.0988   -7.9784 C   0  0  1  0  0  0  0  0  0  0  0  0
   18.3393   69.7155   -6.6358 C   0  0  2  0  0  0  0  0  0  0  0  0
   17.0053   70.5113   -9.7178 H   0  0  0  0  0  0  0  0  0  0  0  0
   15.6539   71.2773   -7.6862 H   0  0  0  0  0  0  0  0  0  0  0  0
   16.1969   68.5771   -5.1899 O   0  0  0  0  0  0  0  0  0  0  0  0
   18.3347   69.2239   -1.1581 O   0  0  0  0  0  0  0  0  0  0  0  0
   18.3099   69.5739   -5.2076 N   0  0  0  0  0  0  0  0  0  0  0  0
   17.2633   68.9012   -3.1831 N   0  0  0  0  0  0  0  0  0  0  0  0
   17.1854   68.9883   -4.5793 C   0  0  0  0  0  0  0  0  0  0  0  0
   19.3862   70.0107   -4.4450 C   0  0  0  0  0  0  0  0  0  0  0  0
   19.4461   69.9209   -3.1149 C   0  0  0  0  0  0  0  0  0  0  0  0
   18.3118   69.3222   -2.3812 C   0  0  0  0  0  0  0  0  0  0  0  0
   16.4913   68.4989   -2.7232 H   0  0  0  0  0  0  0  0  0  0  0  0
   21.4818   74.1551   -5.7048 O   0  0  0  0  0  0  0  0  0  0  0  0
   21.6616   75.2718   -4.5497 P   0  0  2  0  0  0  0  0  0  0  0  0
   20.1648   75.8609   -4.3685 O   0  0  0  0  0  0  0  0  0  0  0  0
   22.7023   76.3103   -4.8538 O   0  0  0  0  0  0  0  0  0  0  0  0
   21.9325   74.4270   -3.2023 O   0  0  0  0  0  0  0  0  0  0  0  0
   22.2112   72.0967   -2.8844 O   0  0  0  0  0  0  0  0  0  0  0  0
   20.3672   73.2116    0.6405 O   0  0  0  0  0  0  0  0  0  0  0  0
   19.4710   74.3133   -1.9124 O   0  0  0  0  0  0  0  0  0  0  0  0
   23.2156   72.6317    0.6038 O   0  0  0  0  0  0  0  0  0  0  0  0
   21.2091   73.3807   -0.4999 C   0  0  2  0  0  0  0  0  0  0  0  0
   20.3801   73.2273   -1.7753 C   0  0  2  0  0  0  0  0  0  0  0  0
   22.3021   72.3110   -0.4436 C   0  0  1  0  0  0  0  0  0  0  0  0
   21.2808   73.1729   -3.0100 C   0  0  1  0  0  0  0  0  0  0  0  0
   23.0741   72.2337   -1.7576 C   0  0  1  0  0  0  0  0  0  0  0  0
   19.6648   73.8807    0.6262 H   0  0  0  0  0  0  0  0  0  0  0  0
   18.8965   74.3540   -1.1322 H   0  0  0  0  0  0  0  0  0  0  0  0
   22.7368   72.6840    1.4457 H   0  0  0  0  0  0  0  0  0  0  0  0
   24.2090   70.6794   -3.0983 O   0  0  0  0  0  0  0  0  0  0  0  0
   24.2562   70.3391   -0.8442 O   0  0  0  0  0  0  0  0  0  0  0  0
   23.9006   70.9904   -1.8149 C   0  0  0  0  0  0  0  0  0  0  0  0
  1  4  1  0
  1 24  1  0
  1  2  1  6
  1  3  2  0
 25 28  1  0
 25 24  1  0
 25 26  1  1
 25 27  2  0
  6 11  1  0
  6 12  1  0
 29 36  1  0
 29 37  1  0
  9  7  1  6
  7 13  1  0
 10  8  1  6
  8 14  1  0
  4  5  1  0
 36 28  1  1
 33 30  1  1
 30 38  1  0
 34 31  1  6
 31 39  1  0
 35 32  1  1
 32 40  1  0
 41 43  1  0
 15 19  2  0
 42 43  2  0
 16 22  2  0
 12 17  1  1
 17 19  1  0
 17 20  1  0
 18 19  1  0
 18 22  1  0
 18 23  1  0
  9 10  1  0
  9 11  1  0
 10 12  1  0
 11  5  1  1
 33 34  1  0
 33 35  1  0
 34 36  1  0
 35 37  1  0
 37 43  1  1
 20 21  2  0
 21 22  1  0
M  CHG  3   2  -1  26  -1  41  -1
M  END
>  <COMPND>  (63) 
    udp_gluA.pdb 

>  <AUTHOR>  (63) 
    GENERATED BY OPEN BABEL 3.1.1

>  <MASTER>  (63) 
        0    0    0    0    0    0    0    0   56    0   56    0

>  <minimizedAffinity>  (63) 
-7.77941

>  <CNNscore>  (63) 
0.6112897992

>  <CNNaffinity>  (63) 
4.4028615952

>  <CNN_VS>  (63) 
2.6914243698

>  <CNNaffinity_variance>  (63) 
0.7323631048

$$$$
64
     RDKit          3D

 43 45  0  0  0  0  0  0  0  0999 V2000
   22.4331   73.2442   -6.4870 P   0  0  2  0  0  0  0  0  0  0  0  0
   22.8078   73.5337   -8.0345 O   0  0  0  0  0  0  0  0  0  0  0  0
   23.5984   72.8984   -5.6070 O   0  0  0  0  0  0  0  0  0  0  0  0
   21.2624   72.1307   -6.5725 O   0  0  0  0  0  0  0  0  0  0  0  0
   20.0363   72.4845   -7.1857 C   0  0  0  0  0  0  0  0  0  0  0  0
   19.7107   70.1214   -6.8898 O   0  0  0  0  0  0  0  0  0  0  0  0
   17.4056   70.3898   -8.7888 O   0  0  0  0  0  0  0  0  0  0  0  0
   16.1701   70.3130   -6.3590 O   0  0  0  0  0  0  0  0  0  0  0  0
   17.8666   71.3027   -7.7925 C   0  0  1  0  0  0  0  0  0  0  0  0
   17.4929   70.8048   -6.4123 C   0  0  2  0  0  0  0  0  0  0  0  0
   19.3870   71.2302   -7.7564 C   0  0  1  0  0  0  0  0  0  0  0  0
   18.5300   69.7200   -6.1768 C   0  0  2  0  0  0  0  0  0  0  0  0
   16.4365   70.4183   -8.8303 H   0  0  0  0  0  0  0  0  0  0  0  0
   15.5478   71.0414   -6.5147 H   0  0  0  0  0  0  0  0  0  0  0  0
   16.9906   68.2287   -4.3377 O   0  0  0  0  0  0  0  0  0  0  0  0
   19.8690   69.1910   -0.8688 O   0  0  0  0  0  0  0  0  0  0  0  0
   18.8542   69.5642   -4.7870 N   0  0  0  0  0  0  0  0  0  0  0  0
   18.4251   68.7102   -2.6115 N   0  0  0  0  0  0  0  0  0  0  0  0
   18.0141   68.7942   -3.9483 C   0  0  0  0  0  0  0  0  0  0  0  0
   19.9930   70.1684   -4.2685 C   0  0  0  0  0  0  0  0  0  0  0  0
   20.3719   70.0792   -2.9921 C   0  0  0  0  0  0  0  0  0  0  0  0
   19.5488   69.2938   -2.0492 C   0  0  0  0  0  0  0  0  0  0  0  0
   17.8550   68.1811   -2.0079 H   0  0  0  0  0  0  0  0  0  0  0  0
   21.6334   74.5797   -6.0514 O   0  0  0  0  0  0  0  0  0  0  0  0
   21.6181   75.4011   -4.6590 P   0  0  2  0  0  0  0  0  0  0  0  0
   20.0929   75.9344   -4.5609 O   0  0  0  0  0  0  0  0  0  0  0  0
   22.6577   76.4806   -4.5695 O   0  0  0  0  0  0  0  0  0  0  0  0
   21.7281   74.2692   -3.5148 O   0  0  0  0  0  0  0  0  0  0  0  0
   22.3814   75.3063   -1.4883 O   0  0  0  0  0  0  0  0  0  0  0  0
   22.1509   71.3372   -0.3653 O   0  0  0  0  0  0  0  0  0  0  0  0
   23.3459   72.0853   -2.9240 O   0  0  0  0  0  0  0  0  0  0  0  0
   20.0560   73.1972    0.4108 O   0  0  0  0  0  0  0  0  0  0  0  0
   21.7953   72.5047   -1.1058 C   0  0  2  0  0  0  0  0  0  0  0  0
   23.0096   73.0030   -1.8899 C   0  0  2  0  0  0  0  0  0  0  0  0
   21.3292   73.5712   -0.1121 C   0  0  1  0  0  0  0  0  0  0  0  0
   22.7354   74.3737   -2.5102 C   0  0  1  0  0  0  0  0  0  0  0  0
   21.2000   74.9369   -0.7805 C   0  0  1  0  0  0  0  0  0  0  0  0
   22.4504   70.6454   -0.9762 H   0  0  0  0  0  0  0  0  0  0  0  0
   23.5209   71.2132   -2.5375 H   0  0  0  0  0  0  0  0  0  0  0  0
   20.1244   72.3295    0.8388 H   0  0  0  0  0  0  0  0  0  0  0  0
   19.8786   75.9288    0.8843 O   0  0  0  0  0  0  0  0  0  0  0  0
   21.9162   76.8676    0.4768 O   0  0  0  0  0  0  0  0  0  0  0  0
   21.0699   76.0180    0.2425 C   0  0  0  0  0  0  0  0  0  0  0  0
  1  4  1  0
  1 24  1  0
  1  2  1  6
  1  3  2  0
 25 28  1  0
 25 24  1  0
 25 26  1  1
 25 27  2  0
  6 11  1  0
  6 12  1  0
 29 36  1  0
 29 37  1  0
  9  7  1  6
  7 13  1  0
 10  8  1  6
  8 14  1  0
  4  5  1  0
 36 28  1  6
 33 30  1  1
 30 38  1  0
 34 31  1  6
 31 39  1  0
 35 32  1  6
 32 40  1  0
 41 43  1  0
 15 19  2  0
 42 43  2  0
 16 22  2  0
 12 17  1  1
 17 19  1  0
 17 20  1  0
 18 19  1  0
 18 22  1  0
 18 23  1  0
  9 10  1  0
  9 11  1  0
 10 12  1  0
 11  5  1  1
 33 34  1  0
 33 35  1  0
 34 36  1  0
 35 37  1  0
 37 43  1  1
 20 21  2  0
 21 22  1  0
M  CHG  3   2  -1  26  -1  41  -1
M  END
>  <COMPND>  (64) 
    udp_gluA.pdb 

>  <AUTHOR>  (64) 
    GENERATED BY OPEN BABEL 3.1.1

>  <MASTER>  (64) 
        0    0    0    0    0    0    0    0   56    0   56    0

>  <minimizedAffinity>  (64) 
-6.96856

>  <CNNscore>  (64) 
0.5971440077

>  <CNNaffinity>  (64) 
4.3028135300

>  <CNN_VS>  (64) 
2.5693993568

>  <CNNaffinity_variance>  (64) 
0.2445278913

$$$$
65
     RDKit          3D

 43 45  0  0  0  0  0  0  0  0999 V2000
   20.5063   71.5415   -1.7168 P   0  0  2  0  0  0  0  0  0  0  0  0
   21.6876   71.5149   -0.6111 O   0  0  0  0  0  0  0  0  0  0  0  0
   19.3709   72.4731   -1.4085 O   0  0  0  0  0  0  0  0  0  0  0  0
   20.1078   69.9837   -1.8971 O   0  0  0  0  0  0  0  0  0  0  0  0
   19.5216   69.5729   -3.1186 C   0  0  0  0  0  0  0  0  0  0  0  0
   17.5889   70.5489   -4.1625 O   0  0  0  0  0  0  0  0  0  0  0  0
   15.9654   68.6448   -2.5101 O   0  0  0  0  0  0  0  0  0  0  0  0
   15.9994   67.4340   -4.9532 O   0  0  0  0  0  0  0  0  0  0  0  0
   17.2393   68.4487   -3.1243 C   0  0  1  0  0  0  0  0  0  0  0  0
   17.0796   68.2807   -4.6204 C   0  0  2  0  0  0  0  0  0  0  0  0
   18.0120   69.7573   -3.0313 C   0  0  1  0  0  0  0  0  0  0  0  0
   16.8620   69.7132   -5.0772 C   0  0  2  0  0  0  0  0  0  0  0  0
   15.4532   67.8219   -2.5573 H   0  0  0  0  0  0  0  0  0  0  0  0
   16.1862   66.5340   -4.6416 H   0  0  0  0  0  0  0  0  0  0  0  0
   15.5732   71.3485   -6.9853 O   0  0  0  0  0  0  0  0  0  0  0  0
   18.8196   70.5261  -10.1521 O   0  0  0  0  0  0  0  0  0  0  0  0
   17.3486   69.9439   -6.4079 N   0  0  0  0  0  0  0  0  0  0  0  0
   17.1908   70.9365   -8.5611 N   0  0  0  0  0  0  0  0  0  0  0  0
   16.6253   70.7827   -7.2884 C   0  0  0  0  0  0  0  0  0  0  0  0
   18.5297   69.3445   -6.8282 C   0  0  0  0  0  0  0  0  0  0  0  0
   19.0563   69.5006   -8.0444 C   0  0  0  0  0  0  0  0  0  0  0  0
   18.3623   70.3606   -9.0253 C   0  0  0  0  0  0  0  0  0  0  0  0
   16.7040   71.5144   -9.1923 H   0  0  0  0  0  0  0  0  0  0  0  0
   21.2981   71.8749   -3.0859 O   0  0  0  0  0  0  0  0  0  0  0  0
   22.8711   72.1165   -3.3705 P   0  0  2  0  0  0  0  0  0  0  0  0
   23.4987   70.6281   -3.2661 O   0  0  0  0  0  0  0  0  0  0  0  0
   23.5137   73.1238   -2.4614 O   0  0  0  0  0  0  0  0  0  0  0  0
   22.9516   72.4833   -4.9394 O   0  0  0  0  0  0  0  0  0  0  0  0
   23.2165   74.8339   -5.0560 O   0  0  0  0  0  0  0  0  0  0  0  0
   23.3639   73.7724   -9.0459 O   0  0  0  0  0  0  0  0  0  0  0  0
   21.4133   72.5372   -7.2560 O   0  0  0  0  0  0  0  0  0  0  0  0
   25.8047   74.4750   -7.6318 O   0  0  0  0  0  0  0  0  0  0  0  0
   23.5608   73.5977   -7.6428 C   0  0  2  0  0  0  0  0  0  0  0  0
   22.2130   73.6665   -6.9244 C   0  0  2  0  0  0  0  0  0  0  0  0
   24.4833   74.7157   -7.1519 C   0  0  1  0  0  0  0  0  0  0  0  0
   22.4032   73.7140   -5.4077 C   0  0  1  0  0  0  0  0  0  0  0  0
   24.5215   74.7774   -5.6276 C   0  0  1  0  0  0  0  0  0  0  0  0
   22.7806   73.0730   -9.3803 H   0  0  0  0  0  0  0  0  0  0  0  0
   21.2888   72.5007   -8.2170 H   0  0  0  0  0  0  0  0  0  0  0  0
   25.7942   74.4333   -8.6008 H   0  0  0  0  0  0  0  0  0  0  0  0
   26.4660   76.0802   -5.4755 O   0  0  0  0  0  0  0  0  0  0  0  0
   24.5569   76.9530   -4.5852 O   0  0  0  0  0  0  0  0  0  0  0  0
   25.1465   76.0528   -5.1639 C   0  0  0  0  0  0  0  0  0  0  0  0
  1  4  1  0
  1 24  1  0
  1  2  1  1
  1  3  2  0
 25 28  1  0
 25 24  1  0
 25 26  1  6
 25 27  2  0
  6 11  1  0
  6 12  1  0
 29 36  1  0
 29 37  1  0
  9  7  1  1
  7 13  1  0
 10  8  1  1
  8 14  1  0
  4  5  1  0
 36 28  1  6
 33 30  1  6
 30 38  1  0
 34 31  1  1
 31 39  1  0
 35 32  1  1
 32 40  1  0
 41 43  1  0
 15 19  2  0
 42 43  2  0
 16 22  2  0
 12 17  1  6
 17 19  1  0
 17 20  1  0
 18 19  1  0
 18 22  1  0
 18 23  1  0
  9 10  1  0
  9 11  1  0
 10 12  1  0
 11  5  1  6
 33 34  1  0
 33 35  1  0
 34 36  1  0
 35 37  1  0
 37 43  1  6
 20 21  2  0
 21 22  1  0
M  CHG  3   2  -1  26  -1  41  -1
M  END
>  <COMPND>  (65) 
    udp_gluA.pdb 

>  <AUTHOR>  (65) 
    GENERATED BY OPEN BABEL 3.1.1

>  <MASTER>  (65) 
        0    0    0    0    0    0    0    0   56    0   56    0

>  <minimizedAffinity>  (65) 
-7.84526

>  <CNNscore>  (65) 
0.5733346343

>  <CNNaffinity>  (65) 
4.5391283035

>  <CNN_VS>  (65) 
2.6024394035

>  <CNNaffinity_variance>  (65) 
0.3923308253

$$$$
66
     RDKit          3D

 43 45  0  0  0  0  0  0  0  0999 V2000
   18.9426   69.3281   -3.9729 P   0  0  2  0  0  0  0  0  0  0  0  0
   20.5037   69.6407   -4.2629 O   0  0  0  0  0  0  0  0  0  0  0  0
   18.6811   68.0639   -3.2079 O   0  0  0  0  0  0  0  0  0  0  0  0
   18.2498   69.4224   -5.4320 O   0  0  0  0  0  0  0  0  0  0  0  0
   18.9855   70.0026   -6.4935 C   0  0  0  0  0  0  0  0  0  0  0  0
   16.7790   70.1527   -7.4350 O   0  0  0  0  0  0  0  0  0  0  0  0
   18.1359   70.5056  -10.0856 O   0  0  0  0  0  0  0  0  0  0  0  0
   17.4387   73.0587   -9.4285 O   0  0  0  0  0  0  0  0  0  0  0  0
   18.5308   70.9797   -8.7981 C   0  0  1  0  0  0  0  0  0  0  0  0
   17.6566   72.1418   -8.3766 C   0  0  2  0  0  0  0  0  0  0  0  0
   18.1629   69.9160   -7.7726 C   0  0  1  0  0  0  0  0  0  0  0  0
   16.3829   71.4370   -7.9420 C   0  0  2  0  0  0  0  0  0  0  0  0
   18.3608   71.1685  -10.7576 H   0  0  0  0  0  0  0  0  0  0  0  0
   18.2790   73.4810   -9.6685 H   0  0  0  0  0  0  0  0  0  0  0  0
   14.4627   73.4528   -8.4166 O   0  0  0  0  0  0  0  0  0  0  0  0
   13.7721   74.1114   -3.9073 O   0  0  0  0  0  0  0  0  0  0  0  0
   15.6859   72.1516   -6.9103 N   0  0  0  0  0  0  0  0  0  0  0  0
   14.1213   73.7796   -6.1702 N   0  0  0  0  0  0  0  0  0  0  0  0
   14.7404   73.1460   -7.2557 C   0  0  0  0  0  0  0  0  0  0  0  0
   15.9398   71.8643   -5.5747 C   0  0  0  0  0  0  0  0  0  0  0  0
   15.3417   72.4766   -4.5510 C   0  0  0  0  0  0  0  0  0  0  0  0
   14.3412   73.5288   -4.8255 C   0  0  0  0  0  0  0  0  0  0  0  0
   13.4607   74.4771   -6.3857 H   0  0  0  0  0  0  0  0  0  0  0  0
   18.4325   70.6759   -3.2407 O   0  0  0  0  0  0  0  0  0  0  0  0
   18.4992   71.1323   -1.6912 P   0  0  2  0  0  0  0  0  0  0  0  0
   18.9572   69.7809   -0.9269 O   0  0  0  0  0  0  0  0  0  0  0  0
   17.2263   71.7355   -1.1716 O   0  0  0  0  0  0  0  0  0  0  0  0
   19.7842   72.1039   -1.6057 O   0  0  0  0  0  0  0  0  0  0  0  0
   21.9708   71.2264   -1.8467 O   0  0  0  0  0  0  0  0  0  0  0  0
   22.7203   74.8693   -0.0479 O   0  0  0  0  0  0  0  0  0  0  0  0
   20.4920   73.2060    0.8480 O   0  0  0  0  0  0  0  0  0  0  0  0
   23.2386   74.5090   -2.8855 O   0  0  0  0  0  0  0  0  0  0  0  0
   22.0198   73.9485   -0.8842 C   0  0  2  0  0  0  0  0  0  0  0  0
   21.5143   72.7759   -0.0434 C   0  0  2  0  0  0  0  0  0  0  0  0
   22.9902   73.4534   -1.9590 C   0  0  1  0  0  0  0  0  0  0  0  0
   20.9624   71.6619   -0.9340 C   0  0  1  0  0  0  0  0  0  0  0  0
   22.4175   72.2612   -2.7200 C   0  0  1  0  0  0  0  0  0  0  0  0
   22.1234   75.1974    0.6431 H   0  0  0  0  0  0  0  0  0  0  0  0
   20.8352   73.9131    1.4160 H   0  0  0  0  0  0  0  0  0  0  0  0
   23.6032   75.2742   -2.4139 H   0  0  0  0  0  0  0  0  0  0  0  0
   23.7147   72.2656   -4.6742 O   0  0  0  0  0  0  0  0  0  0  0  0
   24.0632   70.5629   -3.1983 O   0  0  0  0  0  0  0  0  0  0  0  0
   23.4798   71.5856   -3.5247 C   0  0  0  0  0  0  0  0  0  0  0  0
  1  4  1  0
  1 24  1  0
  1  2  1  6
  1  3  2  0
 25 28  1  0
 25 24  1  0
 25 26  1  1
 25 27  2  0
  6 11  1  0
  6 12  1  0
 29 36  1  0
 29 37  1  0
  9  7  1  6
  7 13  1  0
 10  8  1  6
  8 14  1  0
  4  5  1  0
 36 28  1  6
 33 30  1  1
 30 38  1  0
 34 31  1  1
 31 39  1  0
 35 32  1  6
 32 40  1  0
 41 43  1  0
 15 19  2  0
 42 43  2  0
 16 22  2  0
 12 17  1  1
 17 19  1  0
 17 20  1  0
 18 19  1  0
 18 22  1  0
 18 23  1  0
  9 10  1  0
  9 11  1  0
 10 12  1  0
 11  5  1  1
 33 34  1  0
 33 35  1  0
 34 36  1  0
 35 37  1  0
 37 43  1  6
 20 21  2  0
 21 22  1  0
M  CHG  3   2  -1  26  -1  41  -1
M  END
>  <COMPND>  (66) 
    udp_gluA.pdb 

>  <AUTHOR>  (66) 
    GENERATED BY OPEN BABEL 3.1.1

>  <MASTER>  (66) 
        0    0    0    0    0    0    0    0   56    0   56    0

>  <minimizedAffinity>  (66) 
-8.37546

>  <CNNscore>  (66) 
0.5678806901

>  <CNNaffinity>  (66) 
4.4883508682

>  <CNN_VS>  (66) 
2.5488476753

>  <CNNaffinity_variance>  (66) 
0.1127411127

$$$$
67
     RDKit          3D

 43 45  0  0  0  0  0  0  0  0999 V2000
   16.2907   73.2029   -2.9988 P   0  0  2  0  0  0  0  0  0  0  0  0
   15.0251   72.7817   -2.0824 O   0  0  0  0  0  0  0  0  0  0  0  0
   16.7203   74.6346   -2.8662 O   0  0  0  0  0  0  0  0  0  0  0  0
   15.8665   72.7316   -4.4874 O   0  0  0  0  0  0  0  0  0  0  0  0
   15.8739   73.6913   -5.5282 C   0  0  0  0  0  0  0  0  0  0  0  0
   17.9867   72.5569   -5.6923 O   0  0  0  0  0  0  0  0  0  0  0  0
   17.9259   73.2579   -8.6072 O   0  0  0  0  0  0  0  0  0  0  0  0
   17.1404   70.6466   -8.6059 O   0  0  0  0  0  0  0  0  0  0  0  0
   16.8486   72.9003   -7.7411 C   0  0  1  0  0  0  0  0  0  0  0  0
   16.8814   71.4150   -7.4496 C   0  0  2  0  0  0  0  0  0  0  0  0
   17.1289   73.5003   -6.3702 C   0  0  1  0  0  0  0  0  0  0  0  0
   17.9965   71.3198   -6.4223 C   0  0  2  0  0  0  0  0  0  0  0  0
   17.7691   72.8856   -9.4895 H   0  0  0  0  0  0  0  0  0  0  0  0
   16.4018   70.7403   -9.2285 H   0  0  0  0  0  0  0  0  0  0  0  0
   19.9881   70.3323   -4.6802 O   0  0  0  0  0  0  0  0  0  0  0  0
   17.1452   67.1492   -2.9397 O   0  0  0  0  0  0  0  0  0  0  0  0
   17.8038   70.2338   -5.5034 N   0  0  0  0  0  0  0  0  0  0  0  0
   18.5706   68.7472   -3.8157 N   0  0  0  0  0  0  0  0  0  0  0  0
   18.8696   69.8149   -4.6722 C   0  0  0  0  0  0  0  0  0  0  0  0
   16.5707   69.5973   -5.4307 C   0  0  0  0  0  0  0  0  0  0  0  0
   16.3008   68.5810   -4.6091 C   0  0  0  0  0  0  0  0  0  0  0  0
   17.3601   68.0818   -3.7080 C   0  0  0  0  0  0  0  0  0  0  0  0
   19.2975   68.4365   -3.2288 H   0  0  0  0  0  0  0  0  0  0  0  0
   17.4167   72.1207   -2.5820 O   0  0  0  0  0  0  0  0  0  0  0  0
   18.3075   71.9788   -1.2404 P   0  0  2  0  0  0  0  0  0  0  0  0
   18.4680   70.3770   -1.0706 O   0  0  0  0  0  0  0  0  0  0  0  0
   17.7295   72.6729   -0.0412 O   0  0  0  0  0  0  0  0  0  0  0  0
   19.7759   72.4922   -1.6678 O   0  0  0  0  0  0  0  0  0  0  0  0
   21.8740   71.4776   -2.0897 O   0  0  0  0  0  0  0  0  0  0  0  0
   22.9763   74.8201    0.0738 O   0  0  0  0  0  0  0  0  0  0  0  0
   20.6449   73.2470    0.8642 O   0  0  0  0  0  0  0  0  0  0  0  0
   23.3789   74.7467   -2.8043 O   0  0  0  0  0  0  0  0  0  0  0  0
   22.1774   74.0593   -0.8322 C   0  0  2  0  0  0  0  0  0  0  0  0
   21.6013   72.8421   -0.1085 C   0  0  2  0  0  0  0  0  0  0  0  0
   23.0711   73.6151   -1.9923 C   0  0  1  0  0  0  0  0  0  0  0  0
   20.9327   71.8844   -1.0957 C   0  0  1  0  0  0  0  0  0  0  0  0
   22.3792   72.5668   -2.8588 C   0  0  1  0  0  0  0  0  0  0  0  0
   22.4294   75.1133    0.8196 H   0  0  0  0  0  0  0  0  0  0  0  0
   21.0623   73.8551    1.4938 H   0  0  0  0  0  0  0  0  0  0  0  0
   23.8196   75.4216   -2.2647 H   0  0  0  0  0  0  0  0  0  0  0  0
   23.7354   70.7003   -3.2812 O   0  0  0  0  0  0  0  0  0  0  0  0
   23.7642   72.3777   -4.8254 O   0  0  0  0  0  0  0  0  0  0  0  0
   23.3574   71.9057   -3.7744 C   0  0  0  0  0  0  0  0  0  0  0  0
  1  4  1  0
  1 24  1  0
  1  2  1  1
  1  3  2  0
 25 28  1  0
 25 24  1  0
 25 26  1  1
 25 27  2  0
  6 11  1  0
  6 12  1  0
 29 36  1  0
 29 37  1  0
  9  7  1  6
  7 13  1  0
 10  8  1  6
  8 14  1  0
  4  5  1  0
 36 28  1  6
 33 30  1  1
 30 38  1  0
 34 31  1  1
 31 39  1  0
 35 32  1  6
 32 40  1  0
 41 43  1  0
 15 19  2  0
 42 43  2  0
 16 22  2  0
 12 17  1  1
 17 19  1  0
 17 20  1  0
 18 19  1  0
 18 22  1  0
 18 23  1  0
  9 10  1  0
  9 11  1  0
 10 12  1  0
 11  5  1  1
 33 34  1  0
 33 35  1  0
 34 36  1  0
 35 37  1  0
 37 43  1  6
 20 21  2  0
 21 22  1  0
M  CHG  3   2  -1  26  -1  41  -1
M  END
>  <COMPND>  (67) 
    udp_gluA.pdb 

>  <AUTHOR>  (67) 
    GENERATED BY OPEN BABEL 3.1.1

>  <MASTER>  (67) 
        0    0    0    0    0    0    0    0   56    0   56    0

>  <minimizedAffinity>  (67) 
-7.41156

>  <CNNscore>  (67) 
0.4910944402

>  <CNNaffinity>  (67) 
4.1648688316

>  <CNN_VS>  (67) 
2.0453438759

>  <CNNaffinity_variance>  (67) 
0.6253222227

$$$$
68
     RDKit          3D

 43 45  0  0  0  0  0  0  0  0999 V2000
   20.0626   71.0074   -0.9275 P   0  0  2  0  0  0  0  0  0  0  0  0
   19.7321   69.4234   -0.9042 O   0  0  0  0  0  0  0  0  0  0  0  0
   19.3364   71.8214    0.1030 O   0  0  0  0  0  0  0  0  0  0  0  0
   19.8085   71.4347   -2.4672 O   0  0  0  0  0  0  0  0  0  0  0  0
   19.2831   70.4687   -3.3591 C   0  0  0  0  0  0  0  0  0  0  0  0
   17.3949   71.1815   -4.6646 O   0  0  0  0  0  0  0  0  0  0  0  0
   15.7254   69.5003   -2.8267 O   0  0  0  0  0  0  0  0  0  0  0  0
   15.9627   67.9154   -5.0331 O   0  0  0  0  0  0  0  0  0  0  0  0
   17.0435   69.2624   -3.3214 C   0  0  1  0  0  0  0  0  0  0  0  0
   16.9904   68.8497   -4.7771 C   0  0  2  0  0  0  0  0  0  0  0  0
   17.7660   70.6006   -3.3957 C   0  0  1  0  0  0  0  0  0  0  0  0
   16.7585   70.1797   -5.4737 C   0  0  2  0  0  0  0  0  0  0  0  0
   15.2442   68.6595   -2.7705 H   0  0  0  0  0  0  0  0  0  0  0  0
   16.1567   67.0859   -4.5680 H   0  0  0  0  0  0  0  0  0  0  0  0
   15.6521   71.6001   -7.6497 O   0  0  0  0  0  0  0  0  0  0  0  0
   19.0214   70.2409  -10.4860 O   0  0  0  0  0  0  0  0  0  0  0  0
   17.3260   70.2142   -6.7919 N   0  0  0  0  0  0  0  0  0  0  0  0
   17.3307   70.9210   -9.0605 N   0  0  0  0  0  0  0  0  0  0  0  0
   16.6912   70.9582   -7.8144 C   0  0  0  0  0  0  0  0  0  0  0  0
   18.4984   69.5185   -7.0606 C   0  0  0  0  0  0  0  0  0  0  0  0
   19.0962   69.4926   -8.2534 C   0  0  0  0  0  0  0  0  0  0  0  0
   18.4970   70.2431   -9.3763 C   0  0  0  0  0  0  0  0  0  0  0  0
   16.9062   71.4298   -9.7887 H   0  0  0  0  0  0  0  0  0  0  0  0
   21.6737   71.0439   -0.8014 O   0  0  0  0  0  0  0  0  0  0  0  0
   22.6890   72.2706   -0.5222 P   0  0  2  0  0  0  0  0  0  0  0  0
   24.1061   71.7092   -1.0670 O   0  0  0  0  0  0  0  0  0  0  0  0
   22.7155   72.7353    0.9052 O   0  0  0  0  0  0  0  0  0  0  0  0
   22.2635   73.4047   -1.5876 O   0  0  0  0  0  0  0  0  0  0  0  0
   22.5115   73.2918   -3.9403 O   0  0  0  0  0  0  0  0  0  0  0  0
   22.6220   77.3682   -3.2780 O   0  0  0  0  0  0  0  0  0  0  0  0
   24.0440   75.5396   -1.4979 O   0  0  0  0  0  0  0  0  0  0  0  0
   20.2312   76.1328   -4.3775 O   0  0  0  0  0  0  0  0  0  0  0  0
   22.2272   76.0184   -3.0329 C   0  0  2  0  0  0  0  0  0  0  0  0
   23.4643   75.1680   -2.7431 C   0  0  2  0  0  0  0  0  0  0  0  0
   21.5070   75.5023   -4.2807 C   0  0  1  0  0  0  0  0  0  0  0  0
   23.1088   73.6811   -2.7029 C   0  0  1  0  0  0  0  0  0  0  0  0
   21.3011   73.9915   -4.2202 C   0  0  1  0  0  0  0  0  0  0  0  0
   23.0820   77.7174   -2.4984 H   0  0  0  0  0  0  0  0  0  0  0  0
   24.2718   76.4821   -1.5163 H   0  0  0  0  0  0  0  0  0  0  0  0
   20.3482   77.0949   -4.4165 H   0  0  0  0  0  0  0  0  0  0  0  0
   20.7334   74.4664   -6.4459 O   0  0  0  0  0  0  0  0  0  0  0  0
   20.7582   72.2728   -5.8241 O   0  0  0  0  0  0  0  0  0  0  0  0
   20.9057   73.4561   -5.5578 C   0  0  0  0  0  0  0  0  0  0  0  0
  1  4  1  0
  1 24  1  0
  1  2  1  6
  1  3  2  0
 25 28  1  0
 25 24  1  0
 25 26  1  6
 25 27  2  0
  6 11  1  0
  6 12  1  0
 29 36  1  0
 29 37  1  0
  9  7  1  6
  7 13  1  0
 10  8  1  1
  8 14  1  0
  4  5  1  0
 36 28  1  1
 33 30  1  6
 30 38  1  0
 34 31  1  1
 31 39  1  0
 35 32  1  1
 32 40  1  0
 41 43  1  0
 15 19  2  0
 42 43  2  0
 16 22  2  0
 12 17  1  6
 17 19  1  0
 17 20  1  0
 18 19  1  0
 18 22  1  0
 18 23  1  0
  9 10  1  0
  9 11  1  0
 10 12  1  0
 11  5  1  6
 33 34  1  0
 33 35  1  0
 34 36  1  0
 35 37  1  0
 37 43  1  6
 20 21  2  0
 21 22  1  0
M  CHG  3   2  -1  26  -1  41  -1
M  END
>  <COMPND>  (68) 
    udp_gluA.pdb 

>  <AUTHOR>  (68) 
    GENERATED BY OPEN BABEL 3.1.1

>  <MASTER>  (68) 
        0    0    0    0    0    0    0    0   56    0   56    0

>  <minimizedAffinity>  (68) 
-7.33047

>  <CNNscore>  (68) 
0.4674849510

>  <CNNaffinity>  (68) 
4.4033522606

>  <CNN_VS>  (68) 
2.0585010052

>  <CNNaffinity_variance>  (68) 
0.1185692772

$$$$
69
     RDKit          3D

 43 45  0  0  0  0  0  0  0  0999 V2000
   19.1027   70.2348   -4.3629 P   0  0  2  0  0  0  0  0  0  0  0  0
   19.1016   71.7691   -3.8485 O   0  0  0  0  0  0  0  0  0  0  0  0
   20.3813   69.4869   -4.1225 O   0  0  0  0  0  0  0  0  0  0  0  0
   18.6313   70.3423   -5.9069 O   0  0  0  0  0  0  0  0  0  0  0  0
   17.2521   70.5038   -6.1831 C   0  0  0  0  0  0  0  0  0  0  0  0
   15.7092   71.1667   -7.9029 O   0  0  0  0  0  0  0  0  0  0  0  0
   18.1185   71.6297   -9.6269 O   0  0  0  0  0  0  0  0  0  0  0  0
   17.4653   74.1531   -8.8256 O   0  0  0  0  0  0  0  0  0  0  0  0
   17.9547   71.8482   -8.2255 C   0  0  1  0  0  0  0  0  0  0  0  0
   17.1064   73.0785   -7.9825 C   0  0  2  0  0  0  0  0  0  0  0  0
   17.0694   70.7374   -7.6772 C   0  0  1  0  0  0  0  0  0  0  0  0
   15.7072   72.5573   -8.2628 C   0  0  2  0  0  0  0  0  0  0  0  0
   18.6808   72.3273   -9.9997 H   0  0  0  0  0  0  0  0  0  0  0  0
   18.3636   74.4490   -8.6076 H   0  0  0  0  0  0  0  0  0  0  0  0
   13.5986   74.0724   -9.3740 O   0  0  0  0  0  0  0  0  0  0  0  0
   11.9179   75.1237   -5.2130 O   0  0  0  0  0  0  0  0  0  0  0  0
   14.7046   73.2375   -7.4929 N   0  0  0  0  0  0  0  0  0  0  0  0
   12.7641   74.5954   -7.3005 N   0  0  0  0  0  0  0  0  0  0  0  0
   13.6883   73.9717   -8.1489 C   0  0  0  0  0  0  0  0  0  0  0  0
   14.7329   73.1723   -6.1052 C   0  0  0  0  0  0  0  0  0  0  0  0
   13.8450   73.7721   -5.3098 C   0  0  0  0  0  0  0  0  0  0  0  0
   12.7515   74.5600   -5.9155 C   0  0  0  0  0  0  0  0  0  0  0  0
   12.0484   75.1141   -7.7341 H   0  0  0  0  0  0  0  0  0  0  0  0
   17.8066   69.6055   -3.6302 O   0  0  0  0  0  0  0  0  0  0  0  0
   17.4509   69.4375   -2.0621 P   0  0  2  0  0  0  0  0  0  0  0  0
   18.9042   69.4533   -1.3494 O   0  0  0  0  0  0  0  0  0  0  0  0
   16.6199   68.2279   -1.7454 O   0  0  0  0  0  0  0  0  0  0  0  0
   16.7764   70.8416   -1.6427 O   0  0  0  0  0  0  0  0  0  0  0  0
   14.5851   70.9996   -2.5273 O   0  0  0  0  0  0  0  0  0  0  0  0
   15.0483   74.7060   -0.7620 O   0  0  0  0  0  0  0  0  0  0  0  0
   17.2336   73.5085   -2.2868 O   0  0  0  0  0  0  0  0  0  0  0  0
   13.4111   72.6739    0.5191 O   0  0  0  0  0  0  0  0  0  0  0  0
   15.2457   73.3001   -0.9117 C   0  0  2  0  0  0  0  0  0  0  0  0
   15.8987   73.0162   -2.2647 C   0  0  2  0  0  0  0  0  0  0  0  0
   13.8779   72.6189   -0.8276 C   0  0  1  0  0  0  0  0  0  0  0  0
   15.9163   71.5157   -2.5596 C   0  0  1  0  0  0  0  0  0  0  0  0
   13.9562   71.1568   -1.2573 C   0  0  1  0  0  0  0  0  0  0  0  0
   15.9043   75.1600   -0.8122 H   0  0  0  0  0  0  0  0  0  0  0  0
   17.2299   74.4601   -2.1002 H   0  0  0  0  0  0  0  0  0  0  0  0
   13.3568   73.5992    0.8050 H   0  0  0  0  0  0  0  0  0  0  0  0
   12.6135   69.2426   -1.4428 O   0  0  0  0  0  0  0  0  0  0  0  0
   11.5846   71.2626   -1.6879 O   0  0  0  0  0  0  0  0  0  0  0  0
   12.5900   70.5977   -1.4879 C   0  0  0  0  0  0  0  0  0  0  0  0
  1  4  1  0
  1 24  1  0
  1  2  1  1
  1  3  2  0
 25 28  1  0
 25 24  1  0
 25 26  1  1
 25 27  2  0
  6 11  1  0
  6 12  1  0
 29 36  1  0
 29 37  1  0
  9  7  1  6
  7 13  1  0
 10  8  1  6
  8 14  1  0
  4  5  1  0
 36 28  1  1
 33 30  1  6
 30 38  1  0
 34 31  1  1
 31 39  1  0
 35 32  1  1
 32 40  1  0
 41 43  1  0
 15 19  2  0
 42 43  2  0
 16 22  2  0
 12 17  1  1
 17 19  1  0
 17 20  1  0
 18 19  1  0
 18 22  1  0
 18 23  1  0
  9 10  1  0
  9 11  1  0
 10 12  1  0
 11  5  1  1
 33 34  1  0
 33 35  1  0
 34 36  1  0
 35 37  1  0
 37 43  1  6
 20 21  2  0
 21 22  1  0
M  CHG  3   2  -1  26  -1  41  -1
M  END
>  <COMPND>  (69) 
    udp_gluA.pdb 

>  <AUTHOR>  (69) 
    GENERATED BY OPEN BABEL 3.1.1

>  <MASTER>  (69) 
        0    0    0    0    0    0    0    0   56    0   56    0

>  <minimizedAffinity>  (69) 
-6.48534

>  <CNNscore>  (69) 
0.4630605876

>  <CNNaffinity>  (69) 
4.0136098862

>  <CNN_VS>  (69) 
1.8585445881

>  <CNNaffinity_variance>  (69) 
0.2614040971

$$$$
70
     RDKit          3D

 43 45  0  0  0  0  0  0  0  0999 V2000
   22.0886   73.4701   -6.8526 P   0  0  2  0  0  0  0  0  0  0  0  0
   22.0209   74.9963   -7.3864 O   0  0  0  0  0  0  0  0  0  0  0  0
   23.1426   72.6192   -7.4983 O   0  0  0  0  0  0  0  0  0  0  0  0
   20.5677   72.9385   -7.0017 O   0  0  0  0  0  0  0  0  0  0  0  0
   20.1251   71.9053   -6.1409 C   0  0  0  0  0  0  0  0  0  0  0  0
   18.9384   69.8152   -6.1102 O   0  0  0  0  0  0  0  0  0  0  0  0
   18.6227   70.1640   -9.0716 O   0  0  0  0  0  0  0  0  0  0  0  0
   16.1879   70.9372   -8.1177 O   0  0  0  0  0  0  0  0  0  0  0  0
   18.6088   71.1500   -8.0390 C   0  0  1  0  0  0  0  0  0  0  0  0
   17.3071   71.0840   -7.2688 C   0  0  2  0  0  0  0  0  0  0  0  0
   19.6252   70.7383   -6.9828 C   0  0  1  0  0  0  0  0  0  0  0  0
   17.5284   69.8731   -6.3785 C   0  0  2  0  0  0  0  0  0  0  0  0
   17.9809   70.4054   -9.7583 H   0  0  0  0  0  0  0  0  0  0  0  0
   16.0896   71.7337   -8.6635 H   0  0  0  0  0  0  0  0  0  0  0  0
   16.9159   67.6749   -4.7144 O   0  0  0  0  0  0  0  0  0  0  0  0
   14.8057   70.3676   -1.6256 O   0  0  0  0  0  0  0  0  0  0  0  0
   16.8199   69.9713   -5.1338 N   0  0  0  0  0  0  0  0  0  0  0  0
   15.8646   69.0180   -3.1781 N   0  0  0  0  0  0  0  0  0  0  0  0
   16.5632   68.8057   -4.3738 C   0  0  0  0  0  0  0  0  0  0  0  0
   16.3891   71.2109   -4.6768 C   0  0  0  0  0  0  0  0  0  0  0  0
   15.7243   71.3975   -3.5349 C   0  0  0  0  0  0  0  0  0  0  0  0
   15.4150   70.2310   -2.6822 C   0  0  0  0  0  0  0  0  0  0  0  0
   15.6724   68.2210   -2.6328 H   0  0  0  0  0  0  0  0  0  0  0  0
   22.2551   73.6515   -5.2550 O   0  0  0  0  0  0  0  0  0  0  0  0
   23.1554   74.6800   -4.3917 P   0  0  2  0  0  0  0  0  0  0  0  0
   22.2041   75.9830   -4.2594 O   0  0  0  0  0  0  0  0  0  0  0  0
   24.5078   74.9589   -4.9810 O   0  0  0  0  0  0  0  0  0  0  0  0
   23.1891   74.0481   -2.9077 O   0  0  0  0  0  0  0  0  0  0  0  0
   20.9476   73.9022   -2.1571 O   0  0  0  0  0  0  0  0  0  0  0  0
   23.0136   72.3218    1.0526 O   0  0  0  0  0  0  0  0  0  0  0  0
   24.0150   74.6919   -0.3310 O   0  0  0  0  0  0  0  0  0  0  0  0
   21.5691   70.5670   -0.7599 O   0  0  0  0  0  0  0  0  0  0  0  0
   22.7669   72.6114   -0.3234 C   0  0  2  0  0  0  0  0  0  0  0  0
   22.7244   74.1260   -0.5279 C   0  0  2  0  0  0  0  0  0  0  0  0
   21.4239   71.9849   -0.7051 C   0  0  1  0  0  0  0  0  0  0  0  0
   22.2370   74.4746   -1.9349 C   0  0  1  0  0  0  0  0  0  0  0  0
   20.9457   72.4792   -2.0672 C   0  0  1  0  0  0  0  0  0  0  0  0
   23.8622   72.7102    1.3179 H   0  0  0  0  0  0  0  0  0  0  0  0
   24.3305   74.4744    0.5598 H   0  0  0  0  0  0  0  0  0  0  0  0
   21.8733   70.2396    0.1010 H   0  0  0  0  0  0  0  0  0  0  0  0
   19.3904   70.8799   -2.7919 O   0  0  0  0  0  0  0  0  0  0  0  0
   18.5644   72.8662   -2.0360 O   0  0  0  0  0  0  0  0  0  0  0  0
   19.5088   72.1314   -2.2832 C   0  0  0  0  0  0  0  0  0  0  0  0
  1  4  1  0
  1 24  1  0
  1  2  1  6
  1  3  2  0
 25 28  1  0
 25 24  1  0
 25 26  1  1
 25 27  2  0
  6 11  1  0
  6 12  1  0
 29 36  1  0
 29 37  1  0
  9  7  1  6
  7 13  1  0
 10  8  1  6
  8 14  1  0
  4  5  1  0
 36 28  1  6
 33 30  1  1
 30 38  1  0
 34 31  1  6
 31 39  1  0
 35 32  1  6
 32 40  1  0
 41 43  1  0
 15 19  2  0
 42 43  2  0
 16 22  2  0
 12 17  1  1
 17 19  1  0
 17 20  1  0
 18 19  1  0
 18 22  1  0
 18 23  1  0
  9 10  1  0
  9 11  1  0
 10 12  1  0
 11  5  1  1
 33 34  1  0
 33 35  1  0
 34 36  1  0
 35 37  1  0
 37 43  1  1
 20 21  2  0
 21 22  1  0
M  CHG  3   2  -1  26  -1  41  -1
M  END
>  <COMPND>  (70) 
    udp_gluA.pdb 

>  <AUTHOR>  (70) 
    GENERATED BY OPEN BABEL 3.1.1

>  <MASTER>  (70) 
        0    0    0    0    0    0    0    0   56    0   56    0

>  <minimizedAffinity>  (70) 
-6.82775

>  <CNNscore>  (70) 
0.4362333417

>  <CNNaffinity>  (70) 
4.1418333054

>  <CNN_VS>  (70) 
1.8068057299

>  <CNNaffinity_variance>  (70) 
0.2214531451

$$$$
71
     RDKit          3D

 43 45  0  0  0  0  0  0  0  0999 V2000
   22.5009   71.2212   -2.7296 P   0  0  2  0  0  0  0  0  0  0  0  0
   21.8631   72.4584   -3.5549 O   0  0  0  0  0  0  0  0  0  0  0  0
   23.7522   70.6423   -3.3220 O   0  0  0  0  0  0  0  0  0  0  0  0
   21.2647   70.1919   -2.5554 O   0  0  0  0  0  0  0  0  0  0  0  0
   20.4838   69.8745   -3.6929 C   0  0  0  0  0  0  0  0  0  0  0  0
   18.4477   70.8671   -4.4971 O   0  0  0  0  0  0  0  0  0  0  0  0
   17.0412   69.2009   -2.4387 O   0  0  0  0  0  0  0  0  0  0  0  0
   16.6211   67.7912   -4.7349 O   0  0  0  0  0  0  0  0  0  0  0  0
   18.1870   68.8834   -3.2291 C   0  0  1  0  0  0  0  0  0  0  0  0
   17.7757   68.6008   -4.6586 C   0  0  2  0  0  0  0  0  0  0  0  0
   19.0184   70.1498   -3.3812 C   0  0  1  0  0  0  0  0  0  0  0  0
   17.5457   70.0003   -5.2031 C   0  0  2  0  0  0  0  0  0  0  0  0
   16.4944   68.4069   -2.3278 H   0  0  0  0  0  0  0  0  0  0  0  0
   16.8190   66.9112   -4.3766 H   0  0  0  0  0  0  0  0  0  0  0  0
   15.9073   71.3650   -7.0550 O   0  0  0  0  0  0  0  0  0  0  0  0
   18.6774   70.2867  -10.5775 O   0  0  0  0  0  0  0  0  0  0  0  0
   17.8152   70.0920   -6.6101 N   0  0  0  0  0  0  0  0  0  0  0  0
   17.2880   70.8258   -8.8078 N   0  0  0  0  0  0  0  0  0  0  0  0
   16.9281   70.8013   -7.4540 C   0  0  0  0  0  0  0  0  0  0  0  0
   18.9474   69.4855   -7.1404 C   0  0  0  0  0  0  0  0  0  0  0  0
   19.2773   69.5176   -8.4331 C   0  0  0  0  0  0  0  0  0  0  0  0
   18.4030   70.2374   -9.3823 C   0  0  0  0  0  0  0  0  0  0  0  0
   16.6846   71.3119   -9.4152 H   0  0  0  0  0  0  0  0  0  0  0  0
   22.6790   71.8301   -1.2429 O   0  0  0  0  0  0  0  0  0  0  0  0
   22.5381   73.3434   -0.6918 P   0  0  2  0  0  0  0  0  0  0  0  0
   23.2501   74.2256   -1.8472 O   0  0  0  0  0  0  0  0  0  0  0  0
   23.1034   73.5532    0.6831 O   0  0  0  0  0  0  0  0  0  0  0  0
   20.9673   73.6843   -0.8290 O   0  0  0  0  0  0  0  0  0  0  0  0
   19.4835   74.7487    0.6791 O   0  0  0  0  0  0  0  0  0  0  0  0
   16.9824   72.0469   -1.1951 O   0  0  0  0  0  0  0  0  0  0  0  0
   19.6784   71.2586   -0.3923 O   0  0  0  0  0  0  0  0  0  0  0  0
   16.8643   74.8678   -1.8875 O   0  0  0  0  0  0  0  0  0  0  0  0
   18.0846   72.9483   -1.0929 C   0  0  2  0  0  0  0  0  0  0  0  0
   19.0392   72.4677    0.0004 C   0  0  2  0  0  0  0  0  0  0  0  0
   17.5326   74.3330   -0.7466 C   0  0  1  0  0  0  0  0  0  0  0  0
   20.1067   73.5219    0.2969 C   0  0  1  0  0  0  0  0  0  0  0  0
   18.6481   75.2919   -0.3408 C   0  0  1  0  0  0  0  0  0  0  0  0
   17.3090   71.1601   -1.4146 H   0  0  0  0  0  0  0  0  0  0  0  0
   19.0069   70.5853   -0.5823 H   0  0  0  0  0  0  0  0  0  0  0  0
   16.1519   74.2668   -2.1562 H   0  0  0  0  0  0  0  0  0  0  0  0
   17.8415   77.4760   -0.6242 O   0  0  0  0  0  0  0  0  0  0  0  0
   17.8711   76.6455    1.4991 O   0  0  0  0  0  0  0  0  0  0  0  0
   18.0861   76.5173    0.3032 C   0  0  0  0  0  0  0  0  0  0  0  0
  1  4  1  0
  1 24  1  0
  1  2  1  6
  1  3  2  0
 25 28  1  0
 25 24  1  0
 25 26  1  6
 25 27  2  0
  6 11  1  0
  6 12  1  0
 29 36  1  0
 29 37  1  0
  9  7  1  1
  7 13  1  0
 10  8  1  1
  8 14  1  0
  4  5  1  0
 36 28  1  6
 33 30  1  1
 30 38  1  0
 34 31  1  6
 31 39  1  0
 35 32  1  6
 32 40  1  0
 41 43  1  0
 15 19  2  0
 42 43  2  0
 16 22  2  0
 12 17  1  6
 17 19  1  0
 17 20  1  0
 18 19  1  0
 18 22  1  0
 18 23  1  0
  9 10  1  0
  9 11  1  0
 10 12  1  0
 11  5  1  6
 33 34  1  0
 33 35  1  0
 34 36  1  0
 35 37  1  0
 37 43  1  1
 20 21  2  0
 21 22  1  0
M  CHG  3   2  -1  26  -1  41  -1
M  END
>  <COMPND>  (71) 
    udp_gluA.pdb 

>  <AUTHOR>  (71) 
    GENERATED BY OPEN BABEL 3.1.1

>  <MASTER>  (71) 
        0    0    0    0    0    0    0    0   56    0   56    0

>  <minimizedAffinity>  (71) 
-7.41986

>  <CNNscore>  (71) 
0.4205700755

>  <CNNaffinity>  (71) 
4.3266882896

>  <CNN_VS>  (71) 
1.8196755648

>  <CNNaffinity_variance>  (71) 
0.1857968867

$$$$
72
     RDKit          3D

 43 45  0  0  0  0  0  0  0  0999 V2000
   20.2876   70.5036   -1.5941 P   0  0  2  0  0  0  0  0  0  0  0  0
   20.3524   70.1070   -3.1617 O   0  0  0  0  0  0  0  0  0  0  0  0
   20.1424   69.3441   -0.6527 O   0  0  0  0  0  0  0  0  0  0  0  0
   19.1159   71.6172   -1.5232 O   0  0  0  0  0  0  0  0  0  0  0  0
   17.8816   71.3414   -2.1596 C   0  0  0  0  0  0  0  0  0  0  0  0
   18.1436   72.6958   -4.1280 O   0  0  0  0  0  0  0  0  0  0  0  0
   15.4791   73.8855   -3.4377 O   0  0  0  0  0  0  0  0  0  0  0  0
   14.8460   72.1082   -5.4066 O   0  0  0  0  0  0  0  0  0  0  0  0
   15.9380   72.5429   -3.2780 C   0  0  1  0  0  0  0  0  0  0  0  0
   15.9884   71.8432   -4.6197 C   0  0  2  0  0  0  0  0  0  0  0  0
   17.4092   72.5924   -2.8890 C   0  0  1  0  0  0  0  0  0  0  0  0
   17.2602   72.4126   -5.2248 C   0  0  2  0  0  0  0  0  0  0  0  0
   14.5412   73.8795   -3.6865 H   0  0  0  0  0  0  0  0  0  0  0  0
   14.0632   71.7254   -4.9793 H   0  0  0  0  0  0  0  0  0  0  0  0
   18.1256   73.0571   -7.8348 O   0  0  0  0  0  0  0  0  0  0  0  0
   19.7173   68.7923   -8.5569 O   0  0  0  0  0  0  0  0  0  0  0  0
   17.9038   71.4898   -6.1164 N   0  0  0  0  0  0  0  0  0  0  0  0
   18.9166   70.9321   -8.1923 N   0  0  0  0  0  0  0  0  0  0  0  0
   18.2992   71.9144   -7.4069 C   0  0  0  0  0  0  0  0  0  0  0  0
   18.1386   70.1819   -5.7100 C   0  0  0  0  0  0  0  0  0  0  0  0
   18.7284   69.2569   -6.4698 C   0  0  0  0  0  0  0  0  0  0  0  0
   19.1712   69.6187   -7.8323 C   0  0  0  0  0  0  0  0  0  0  0  0
   19.1989   71.2036   -9.0956 H   0  0  0  0  0  0  0  0  0  0  0  0
   21.6318   71.3766   -1.3848 O   0  0  0  0  0  0  0  0  0  0  0  0
   22.5294   72.2124   -2.4381 P   0  0  2  0  0  0  0  0  0  0  0  0
   21.4499   72.6927   -3.5446 O   0  0  0  0  0  0  0  0  0  0  0  0
   23.6920   71.4467   -3.0001 O   0  0  0  0  0  0  0  0  0  0  0  0
   22.9337   73.5615   -1.6513 O   0  0  0  0  0  0  0  0  0  0  0  0
   23.3076   74.3961    0.5334 O   0  0  0  0  0  0  0  0  0  0  0  0
   20.5168   77.0719   -0.9226 O   0  0  0  0  0  0  0  0  0  0  0  0
   20.2372   74.2108   -1.4427 O   0  0  0  0  0  0  0  0  0  0  0  0
   23.3119   77.8446   -0.7197 O   0  0  0  0  0  0  0  0  0  0  0  0
   21.6124   76.1600   -1.0008 C   0  0  2  0  0  0  0  0  0  0  0  0
   21.1635   74.7785   -0.5239 C   0  0  2  0  0  0  0  0  0  0  0  0
   22.7354   76.6924   -0.1077 C   0  0  1  0  0  0  0  0  0  0  0  0
   22.3587   73.8361   -0.3751 C   0  0  1  0  0  0  0  0  0  0  0  0
   23.8296   75.6481    0.0936 C   0  0  1  0  0  0  0  0  0  0  0  0
   19.7908   76.7541   -1.4824 H   0  0  0  0  0  0  0  0  0  0  0  0
   19.4764   74.8037   -1.5422 H   0  0  0  0  0  0  0  0  0  0  0  0
   22.6258   78.5171   -0.8536 H   0  0  0  0  0  0  0  0  0  0  0  0
   24.0553   76.7038    2.1759 O   0  0  0  0  0  0  0  0  0  0  0  0
   25.9379   75.8043    1.2563 O   0  0  0  0  0  0  0  0  0  0  0  0
   24.7404   76.0426    1.2103 C   0  0  0  0  0  0  0  0  0  0  0  0
  1  4  1  0
  1 24  1  0
  1  2  1  6
  1  3  2  0
 25 28  1  0
 25 24  1  0
 25 26  1  6
 25 27  2  0
  6 11  1  0
  6 12  1  0
 29 36  1  0
 29 37  1  0
  9  7  1  6
  7 13  1  0
 10  8  1  6
  8 14  1  0
  4  5  1  0
 36 28  1  6
 33 30  1  1
 30 38  1  0
 34 31  1  6
 31 39  1  0
 35 32  1  6
 32 40  1  0
 41 43  1  0
 15 19  2  0
 42 43  2  0
 16 22  2  0
 12 17  1  6
 17 19  1  0
 17 20  1  0
 18 19  1  0
 18 22  1  0
 18 23  1  0
  9 10  1  0
  9 11  1  0
 10 12  1  0
 11  5  1  6
 33 34  1  0
 33 35  1  0
 34 36  1  0
 35 37  1  0
 37 43  1  1
 20 21  2  0
 21 22  1  0
M  CHG  3   2  -1  26  -1  41  -1
M  END
>  <COMPND>  (72) 
    udp_gluA.pdb 

>  <AUTHOR>  (72) 
    GENERATED BY OPEN BABEL 3.1.1

>  <MASTER>  (72) 
        0    0    0    0    0    0    0    0   56    0   56    0

>  <minimizedAffinity>  (72) 
-6.59683

>  <CNNscore>  (72) 
0.4059094787

>  <CNNaffinity>  (72) 
4.2199964523

>  <CNN_VS>  (72) 
1.7129365206

>  <CNNaffinity_variance>  (72) 
0.0119711021

$$$$
73
     RDKit          3D

 43 45  0  0  0  0  0  0  0  0999 V2000
   16.7611   72.9333   -2.8691 P   0  0  2  0  0  0  0  0  0  0  0  0
   15.3888   72.5123   -3.6164 O   0  0  0  0  0  0  0  0  0  0  0  0
   16.5890   73.8669   -1.7070 O   0  0  0  0  0  0  0  0  0  0  0  0
   17.7071   73.4697   -4.0672 O   0  0  0  0  0  0  0  0  0  0  0  0
   17.0970   73.8929   -5.2726 C   0  0  0  0  0  0  0  0  0  0  0  0
   18.5217   72.1116   -6.0306 O   0  0  0  0  0  0  0  0  0  0  0  0
   17.8372   72.9978   -8.8122 O   0  0  0  0  0  0  0  0  0  0  0  0
   16.2232   70.8275   -8.4642 O   0  0  0  0  0  0  0  0  0  0  0  0
   17.0170   72.9744   -7.6438 C   0  0  1  0  0  0  0  0  0  0  0  0
   16.6117   71.5528   -7.3163 C   0  0  2  0  0  0  0  0  0  0  0  0
   17.8891   73.3399   -6.4504 C   0  0  1  0  0  0  0  0  0  0  0  0
   17.8759   71.0036   -6.6776 C   0  0  2  0  0  0  0  0  0  0  0  0
   17.3018   72.7673   -9.5881 H   0  0  0  0  0  0  0  0  0  0  0  0
   15.4140   71.2158   -8.8335 H   0  0  0  0  0  0  0  0  0  0  0  0
   19.8548   69.4898   -5.3475 O   0  0  0  0  0  0  0  0  0  0  0  0
   16.7010   67.1361   -2.9480 O   0  0  0  0  0  0  0  0  0  0  0  0
   17.5998   69.9887   -5.7005 N   0  0  0  0  0  0  0  0  0  0  0  0
   18.2821   68.3183   -4.1544 N   0  0  0  0  0  0  0  0  0  0  0  0
   18.6665   69.2863   -5.0916 C   0  0  0  0  0  0  0  0  0  0  0  0
   16.2857   69.6992   -5.3535 C   0  0  0  0  0  0  0  0  0  0  0  0
   15.9349   68.7738   -4.4583 C   0  0  0  0  0  0  0  0  0  0  0  0
   16.9891   67.9942   -3.7767 C   0  0  0  0  0  0  0  0  0  0  0  0
   19.0073   67.8147   -3.7187 H   0  0  0  0  0  0  0  0  0  0  0  0
   17.4227   71.5068   -2.4947 O   0  0  0  0  0  0  0  0  0  0  0  0
   18.6482   71.1310   -1.5095 P   0  0  2  0  0  0  0  0  0  0  0  0
   18.4816   69.5340   -1.3044 O   0  0  0  0  0  0  0  0  0  0  0  0
   18.6752   71.9191   -0.2320 O   0  0  0  0  0  0  0  0  0  0  0  0
   19.9696   71.2887   -2.4215 O   0  0  0  0  0  0  0  0  0  0  0  0
   21.0407   73.1961   -1.5138 O   0  0  0  0  0  0  0  0  0  0  0  0
   23.8483   71.8732   -4.2405 O   0  0  0  0  0  0  0  0  0  0  0  0
   21.0094   71.8928   -4.9295 O   0  0  0  0  0  0  0  0  0  0  0  0
   24.2464   71.4151   -1.3975 O   0  0  0  0  0  0  0  0  0  0  0  0
   22.7914   71.7407   -3.2901 C   0  0  2  0  0  0  0  0  0  0  0  0
   21.5657   72.5142   -3.7766 C   0  0  2  0  0  0  0  0  0  0  0  0
   23.2821   72.3058   -1.9553 C   0  0  1  0  0  0  0  0  0  0  0  0
   20.4965   72.5877   -2.6856 C   0  0  1  0  0  0  0  0  0  0  0  0
   22.1344   72.4660   -0.9625 C   0  0  1  0  0  0  0  0  0  0  0  0
   23.5594   71.5205   -5.0969 H   0  0  0  0  0  0  0  0  0  0  0  0
   21.6825   71.8426   -5.6258 H   0  0  0  0  0  0  0  0  0  0  0  0
   24.9823   71.3044   -2.0197 H   0  0  0  0  0  0  0  0  0  0  0  0
   23.0073   72.5366    1.2134 O   0  0  0  0  0  0  0  0  0  0  0  0
   22.4929   74.5303    0.2339 O   0  0  0  0  0  0  0  0  0  0  0  0
   22.5505   73.3104    0.1978 C   0  0  0  0  0  0  0  0  0  0  0  0
  1  4  1  0
  1 24  1  0
  1  2  1  6
  1  3  2  0
 25 28  1  0
 25 24  1  0
 25 26  1  1
 25 27  2  0
  6 11  1  0
  6 12  1  0
 29 36  1  0
 29 37  1  0
  9  7  1  6
  7 13  1  0
 10  8  1  6
  8 14  1  0
  4  5  1  0
 36 28  1  1
 33 30  1  6
 30 38  1  0
 34 31  1  6
 31 39  1  0
 35 32  1  1
 32 40  1  0
 41 43  1  0
 15 19  2  0
 42 43  2  0
 16 22  2  0
 12 17  1  1
 17 19  1  0
 17 20  1  0
 18 19  1  0
 18 22  1  0
 18 23  1  0
  9 10  1  0
  9 11  1  0
 10 12  1  0
 11  5  1  1
 33 34  1  0
 33 35  1  0
 34 36  1  0
 35 37  1  0
 37 43  1  1
 20 21  2  0
 21 22  1  0
M  CHG  3   2  -1  26  -1  41  -1
M  END
>  <COMPND>  (73) 
    udp_gluA.pdb 

>  <AUTHOR>  (73) 
    GENERATED BY OPEN BABEL 3.1.1

>  <MASTER>  (73) 
        0    0    0    0    0    0    0    0   56    0   56    0

>  <minimizedAffinity>  (73) 
-7.56853

>  <CNNscore>  (73) 
0.4042282999

>  <CNNaffinity>  (73) 
3.9082596302

>  <CNN_VS>  (73) 
1.5798290968

>  <CNNaffinity_variance>  (73) 
0.8077004552

$$$$
74
     RDKit          3D

 43 45  0  0  0  0  0  0  0  0999 V2000
   19.5085   70.4738   -4.4911 P   0  0  2  0  0  0  0  0  0  0  0  0
   19.6657   72.0843   -4.4681 O   0  0  0  0  0  0  0  0  0  0  0  0
   20.6348   69.7180   -3.8492 O   0  0  0  0  0  0  0  0  0  0  0  0
   19.2309   70.1327   -6.0482 O   0  0  0  0  0  0  0  0  0  0  0  0
   17.9452   69.6716   -6.4205 C   0  0  0  0  0  0  0  0  0  0  0  0
   16.2389   70.7223   -7.7481 O   0  0  0  0  0  0  0  0  0  0  0  0
   18.4435   71.5117   -9.6211 O   0  0  0  0  0  0  0  0  0  0  0  0
   18.0027   73.8081   -8.2182 O   0  0  0  0  0  0  0  0  0  0  0  0
   18.4578   71.4197   -8.1964 C   0  0  1  0  0  0  0  0  0  0  0  0
   17.6998   72.5808   -7.5885 C   0  0  2  0  0  0  0  0  0  0  0  0
   17.5960   70.2308   -7.7937 C   0  0  1  0  0  0  0  0  0  0  0  0
   16.2555   72.1579   -7.7962 C   0  0  2  0  0  0  0  0  0  0  0  0
   18.9875   72.2644   -9.9024 H   0  0  0  0  0  0  0  0  0  0  0  0
   18.9327   74.0336   -8.0565 H   0  0  0  0  0  0  0  0  0  0  0  0
   14.1054   73.9248   -8.2776 O   0  0  0  0  0  0  0  0  0  0  0  0
   12.9739   74.0553   -3.8114 O   0  0  0  0  0  0  0  0  0  0  0  0
   15.3829   72.6693   -6.7774 N   0  0  0  0  0  0  0  0  0  0  0  0
   13.5446   73.9889   -6.0526 N   0  0  0  0  0  0  0  0  0  0  0  0
   14.3328   73.5516   -7.1252 C   0  0  0  0  0  0  0  0  0  0  0  0
   15.5701   72.2957   -5.4522 C   0  0  0  0  0  0  0  0  0  0  0  0
   14.8105   72.7207   -4.4407 C   0  0  0  0  0  0  0  0  0  0  0  0
   13.6921   73.6457   -4.7184 C   0  0  0  0  0  0  0  0  0  0  0  0
   12.8084   74.6055   -6.2697 H   0  0  0  0  0  0  0  0  0  0  0  0
   18.0637   70.2404   -3.8048 O   0  0  0  0  0  0  0  0  0  0  0  0
   17.5714   70.4298   -2.2766 P   0  0  2  0  0  0  0  0  0  0  0  0
   18.4577   69.3450   -1.4654 O   0  0  0  0  0  0  0  0  0  0  0  0
   16.0895   70.2853   -2.0846 O   0  0  0  0  0  0  0  0  0  0  0  0
   18.1683   71.8600   -1.8286 O   0  0  0  0  0  0  0  0  0  0  0  0
   19.8443   71.7831   -0.1570 O   0  0  0  0  0  0  0  0  0  0  0  0
   18.9938   75.8231   -0.3096 O   0  0  0  0  0  0  0  0  0  0  0  0
   16.8404   73.8516   -0.4121 O   0  0  0  0  0  0  0  0  0  0  0  0
   21.4289   74.7978   -1.5220 O   0  0  0  0  0  0  0  0  0  0  0  0
   19.1402   74.5017   -0.8295 C   0  0  2  0  0  0  0  0  0  0  0  0
   18.1944   73.5537   -0.0918 C   0  0  2  0  0  0  0  0  0  0  0  0
   20.5940   74.0706   -0.6228 C   0  0  1  0  0  0  0  0  0  0  0  0
   18.4841   72.0974   -0.4580 C   0  0  1  0  0  0  0  0  0  0  0  0
   20.7755   72.5787   -0.8870 C   0  0  1  0  0  0  0  0  0  0  0  0
   18.0774   76.1184   -0.4299 H   0  0  0  0  0  0  0  0  0  0  0  0
   16.6497   74.7743   -0.1826 H   0  0  0  0  0  0  0  0  0  0  0  0
   21.3226   75.7489   -1.3644 H   0  0  0  0  0  0  0  0  0  0  0  0
   22.5827   72.9639    0.5578 O   0  0  0  0  0  0  0  0  0  0  0  0
   22.6653   71.0865   -0.7335 O   0  0  0  0  0  0  0  0  0  0  0  0
   22.0962   72.1058   -0.3728 C   0  0  0  0  0  0  0  0  0  0  0  0
  1  4  1  0
  1 24  1  0
  1  2  1  6
  1  3  2  0
 25 28  1  0
 25 24  1  0
 25 26  1  1
 25 27  2  0
  6 11  1  0
  6 12  1  0
 29 36  1  0
 29 37  1  0
  9  7  1  6
  7 13  1  0
 10  8  1  6
  8 14  1  0
  4  5  1  0
 36 28  1  6
 33 30  1  1
 30 38  1  0
 34 31  1  6
 31 39  1  0
 35 32  1  6
 32 40  1  0
 41 43  1  0
 15 19  2  0
 42 43  2  0
 16 22  2  0
 12 17  1  1
 17 19  1  0
 17 20  1  0
 18 19  1  0
 18 22  1  0
 18 23  1  0
  9 10  1  0
  9 11  1  0
 10 12  1  0
 11  5  1  1
 33 34  1  0
 33 35  1  0
 34 36  1  0
 35 37  1  0
 37 43  1  1
 20 21  2  0
 21 22  1  0
M  CHG  3   2  -1  26  -1  41  -1
M  END
>  <COMPND>  (74) 
    udp_gluA.pdb 

>  <AUTHOR>  (74) 
    GENERATED BY OPEN BABEL 3.1.1

>  <MASTER>  (74) 
        0    0    0    0    0    0    0    0   56    0   56    0

>  <minimizedAffinity>  (74) 
-6.73616

>  <CNNscore>  (74) 
0.4021713138

>  <CNNaffinity>  (74) 
4.1300110817

>  <CNN_VS>  (74) 
1.6609719992

>  <CNNaffinity_variance>  (74) 
0.0470174663

$$$$
75
     RDKit          3D

 43 45  0  0  0  0  0  0  0  0999 V2000
   17.7649   70.2133   -2.1622 P   0  0  2  0  0  0  0  0  0  0  0  0
   16.5356   69.6183   -3.0304 O   0  0  0  0  0  0  0  0  0  0  0  0
   18.5285   69.1964   -1.3657 O   0  0  0  0  0  0  0  0  0  0  0  0
   17.0934   71.4135   -1.3099 O   0  0  0  0  0  0  0  0  0  0  0  0
   17.6928   72.6952   -1.3591 C   0  0  0  0  0  0  0  0  0  0  0  0
   19.2722   72.3209    0.4138 O   0  0  0  0  0  0  0  0  0  0  0  0
   18.3853   74.9667    1.5113 O   0  0  0  0  0  0  0  0  0  0  0  0
   20.7379   75.5902    0.2816 O   0  0  0  0  0  0  0  0  0  0  0  0
   18.5401   74.5584    0.1519 C   0  0  1  0  0  0  0  0  0  0  0  0
   20.0085   74.4850   -0.2093 C   0  0  2  0  0  0  0  0  0  0  0  0
   18.1131   73.1006    0.0478 C   0  0  1  0  0  0  0  0  0  0  0  0
   20.4270   73.1750    0.4361 C   0  0  2  0  0  0  0  0  0  0  0  0
   18.6520   75.8953    1.6027 H   0  0  0  0  0  0  0  0  0  0  0  0
   20.4349   76.3996   -0.1601 H   0  0  0  0  0  0  0  0  0  0  0  0
   23.1185   74.0288    0.4947 O   0  0  0  0  0  0  0  0  0  0  0  0
   24.4482   70.6320   -2.3227 O   0  0  0  0  0  0  0  0  0  0  0  0
   21.4970   72.5320   -0.2728 N   0  0  0  0  0  0  0  0  0  0  0  0
   23.7780   72.3368   -0.9094 N   0  0  0  0  0  0  0  0  0  0  0  0
   22.8137   73.0410   -0.1764 C   0  0  0  0  0  0  0  0  0  0  0  0
   21.2380   71.4102   -1.0509 C   0  0  0  0  0  0  0  0  0  0  0  0
   22.1676   70.7496   -1.7438 C   0  0  0  0  0  0  0  0  0  0  0  0
   23.5686   71.2169   -1.6977 C   0  0  0  0  0  0  0  0  0  0  0  0
   24.7018   72.6736   -0.8595 H   0  0  0  0  0  0  0  0  0  0  0  0
   18.6429   71.0000   -3.2681 O   0  0  0  0  0  0  0  0  0  0  0  0
   19.3926   70.4723   -4.5997 P   0  0  2  0  0  0  0  0  0  0  0  0
   19.0437   68.8917   -4.6188 O   0  0  0  0  0  0  0  0  0  0  0  0
   20.8610   70.7820   -4.6433 O   0  0  0  0  0  0  0  0  0  0  0  0
   18.5411   71.0921   -5.8217 O   0  0  0  0  0  0  0  0  0  0  0  0
   17.6783   73.2975   -5.8521 O   0  0  0  0  0  0  0  0  0  0  0  0
   15.1800   71.3804   -8.5264 O   0  0  0  0  0  0  0  0  0  0  0  0
   15.9609   70.0749   -6.0323 O   0  0  0  0  0  0  0  0  0  0  0  0
   17.2709   73.1524   -9.4956 O   0  0  0  0  0  0  0  0  0  0  0  0
   16.4053   71.6325   -7.8386 C   0  0  2  0  0  0  0  0  0  0  0  0
   16.1965   71.4450   -6.3356 C   0  0  2  0  0  0  0  0  0  0  0  0
   16.8303   73.0711   -8.1415 C   0  0  1  0  0  0  0  0  0  0  0  0
   17.4167   71.9266   -5.5495 C   0  0  1  0  0  0  0  0  0  0  0  0
   17.9694   73.5191   -7.2302 C   0  0  1  0  0  0  0  0  0  0  0  0
   14.8903   70.4717   -8.3487 H   0  0  0  0  0  0  0  0  0  0  0  0
   15.1882   69.7627   -6.5280 H   0  0  0  0  0  0  0  0  0  0  0  0
   16.5551   72.8697  -10.0860 H   0  0  0  0  0  0  0  0  0  0  0  0
   19.2998   75.3699   -6.6770 O   0  0  0  0  0  0  0  0  0  0  0  0
   17.3840   75.7778   -7.8442 O   0  0  0  0  0  0  0  0  0  0  0  0
   18.1536   75.0001   -7.3003 C   0  0  0  0  0  0  0  0  0  0  0  0
  1  4  1  0
  1 24  1  0
  1  2  1  6
  1  3  2  0
 25 28  1  0
 25 24  1  0
 25 26  1  6
 25 27  2  0
  6 11  1  0
  6 12  1  0
 29 36  1  0
 29 37  1  0
  9  7  1  1
  7 13  1  0
 10  8  1  1
  8 14  1  0
  4  5  1  0
 36 28  1  6
 33 30  1  6
 30 38  1  0
 34 31  1  6
 31 39  1  0
 35 32  1  6
 32 40  1  0
 41 43  1  0
 15 19  2  0
 42 43  2  0
 16 22  2  0
 12 17  1  6
 17 19  1  0
 17 20  1  0
 18 19  1  0
 18 22  1  0
 18 23  1  0
  9 10  1  0
  9 11  1  0
 10 12  1  0
 11  5  1  6
 33 34  1  0
 33 35  1  0
 34 36  1  0
 35 37  1  0
 37 43  1  1
 20 21  2  0
 21 22  1  0
M  CHG  3   2  -1  26  -1  41  -1
M  END
>  <COMPND>  (75) 
    udp_gluA.pdb 

>  <AUTHOR>  (75) 
    GENERATED BY OPEN BABEL 3.1.1

>  <MASTER>  (75) 
        0    0    0    0    0    0    0    0   56    0   56    0

>  <minimizedAffinity>  (75) 
-7.15114

>  <CNNscore>  (75) 
0.3814266026

>  <CNNaffinity>  (75) 
3.7659111023

>  <CNN_VS>  (75) 
1.4364186525

>  <CNNaffinity_variance>  (75) 
0.4996341765

$$$$
76
     RDKit          3D

 43 45  0  0  0  0  0  0  0  0999 V2000
   16.9519   69.0806   -4.0285 P   0  0  2  0  0  0  0  0  0  0  0  0
   16.3242   67.5890   -4.0341 O   0  0  0  0  0  0  0  0  0  0  0  0
   15.9554   70.1866   -3.8399 O   0  0  0  0  0  0  0  0  0  0  0  0
   17.8199   69.1420   -5.3926 O   0  0  0  0  0  0  0  0  0  0  0  0
   17.9343   70.3821   -6.0661 C   0  0  0  0  0  0  0  0  0  0  0  0
   15.9995   70.6452   -7.4679 O   0  0  0  0  0  0  0  0  0  0  0  0
   17.8976   70.5512   -9.7874 O   0  0  0  0  0  0  0  0  0  0  0  0
   17.4016   73.2204   -9.5311 O   0  0  0  0  0  0  0  0  0  0  0  0
   18.0791   71.1281   -8.4940 C   0  0  1  0  0  0  0  0  0  0  0  0
   17.2876   72.4135   -8.3776 C   0  0  2  0  0  0  0  0  0  0  0  0
   17.3833   70.2324   -7.4783 C   0  0  1  0  0  0  0  0  0  0  0  0
   15.8754   71.8960   -8.1632 C   0  0  2  0  0  0  0  0  0  0  0  0
   18.3337   71.1061  -10.4534 H   0  0  0  0  0  0  0  0  0  0  0  0
   18.3185   73.5250   -9.6232 H   0  0  0  0  0  0  0  0  0  0  0  0
   13.9742   73.6940   -9.2257 O   0  0  0  0  0  0  0  0  0  0  0  0
   12.8712   75.2850   -5.0429 O   0  0  0  0  0  0  0  0  0  0  0  0
   15.0775   72.7915   -7.3745 N   0  0  0  0  0  0  0  0  0  0  0  0
   13.4274   74.4854   -7.1415 N   0  0  0  0  0  0  0  0  0  0  0  0
   14.1514   73.6546   -8.0067 C   0  0  0  0  0  0  0  0  0  0  0  0
   15.2148   72.8080   -5.9919 C   0  0  0  0  0  0  0  0  0  0  0  0
   14.5176   73.6055   -5.1803 C   0  0  0  0  0  0  0  0  0  0  0  0
   13.5295   74.5383   -5.7608 C   0  0  0  0  0  0  0  0  0  0  0  0
   12.7779   75.0966   -7.5587 H   0  0  0  0  0  0  0  0  0  0  0  0
   18.0859   68.9928   -2.8799 O   0  0  0  0  0  0  0  0  0  0  0  0
   18.8032   70.1484   -2.0061 P   0  0  2  0  0  0  0  0  0  0  0  0
   19.7092   69.3110   -0.9581 O   0  0  0  0  0  0  0  0  0  0  0  0
   17.8512   71.1162   -1.3650 O   0  0  0  0  0  0  0  0  0  0  0  0
   19.8662   70.8236   -3.0144 O   0  0  0  0  0  0  0  0  0  0  0  0
   21.3723   72.0444   -1.6541 O   0  0  0  0  0  0  0  0  0  0  0  0
   22.9792   72.6228   -5.4159 O   0  0  0  0  0  0  0  0  0  0  0  0
   20.0902   72.7549   -5.0034 O   0  0  0  0  0  0  0  0  0  0  0  0
   24.2308   70.7634   -3.5646 O   0  0  0  0  0  0  0  0  0  0  0  0
   22.2821   71.9138   -4.3915 C   0  0  2  0  0  0  0  0  0  0  0  0
   21.0549   72.7162   -3.9582 C   0  0  2  0  0  0  0  0  0  0  0  0
   23.2385   71.7254   -3.2119 C   0  0  1  0  0  0  0  0  0  0  0  0
   20.4141   72.1053   -2.7113 C   0  0  1  0  0  0  0  0  0  0  0  0
   22.5012   71.2327   -1.9701 C   0  0  1  0  0  0  0  0  0  0  0  0
   22.3910   72.7543   -6.1761 H   0  0  0  0  0  0  0  0  0  0  0  0
   20.4901   73.1412   -5.7979 H   0  0  0  0  0  0  0  0  0  0  0  0
   24.7074   71.0649   -4.3538 H   0  0  0  0  0  0  0  0  0  0  0  0
   24.3735   70.4646   -0.7844 O   0  0  0  0  0  0  0  0  0  0  0  0
   23.1838   72.1739    0.1441 O   0  0  0  0  0  0  0  0  0  0  0  0
   23.3606   71.3658   -0.7552 C   0  0  0  0  0  0  0  0  0  0  0  0
  1  4  1  0
  1 24  1  0
  1  2  1  6
  1  3  2  0
 25 28  1  0
 25 24  1  0
 25 26  1  1
 25 27  2  0
  6 11  1  0
  6 12  1  0
 29 36  1  0
 29 37  1  0
  9  7  1  6
  7 13  1  0
 10  8  1  6
  8 14  1  0
  4  5  1  0
 36 28  1  6
 33 30  1  6
 30 38  1  0
 34 31  1  6
 31 39  1  0
 35 32  1  6
 32 40  1  0
 41 43  1  0
 15 19  2  0
 42 43  2  0
 16 22  2  0
 12 17  1  1
 17 19  1  0
 17 20  1  0
 18 19  1  0
 18 22  1  0
 18 23  1  0
  9 10  1  0
  9 11  1  0
 10 12  1  0
 11  5  1  1
 33 34  1  0
 33 35  1  0
 34 36  1  0
 35 37  1  0
 37 43  1  1
 20 21  2  0
 21 22  1  0
M  CHG  3   2  -1  26  -1  41  -1
M  END
>  <COMPND>  (76) 
    udp_gluA.pdb 

>  <AUTHOR>  (76) 
    GENERATED BY OPEN BABEL 3.1.1

>  <MASTER>  (76) 
        0    0    0    0    0    0    0    0   56    0   56    0

>  <minimizedAffinity>  (76) 
-8.13850

>  <CNNscore>  (76) 
0.3715803623

>  <CNNaffinity>  (76) 
4.1861181259

>  <CNN_VS>  (76) 
1.5554792881

>  <CNNaffinity_variance>  (76) 
0.1643183529

$$$$
77
     RDKit          3D

 43 45  0  0  0  0  0  0  0  0999 V2000
   22.5219   71.3380   -2.0294 P   0  0  2  0  0  0  0  0  0  0  0  0
   23.7379   70.6645   -2.8580 O   0  0  0  0  0  0  0  0  0  0  0  0
   22.0951   70.5830   -0.8048 O   0  0  0  0  0  0  0  0  0  0  0  0
   21.3744   71.5729   -3.1456 O   0  0  0  0  0  0  0  0  0  0  0  0
   20.6918   70.4448   -3.6613 C   0  0  0  0  0  0  0  0  0  0  0  0
   18.5263   71.1416   -4.4376 O   0  0  0  0  0  0  0  0  0  0  0  0
   17.3968   69.4240   -2.2545 O   0  0  0  0  0  0  0  0  0  0  0  0
   17.0844   67.8592   -4.4658 O   0  0  0  0  0  0  0  0  0  0  0  0
   18.5488   69.2078   -3.0698 C   0  0  1  0  0  0  0  0  0  0  0  0
   18.1328   68.8054   -4.4688 C   0  0  2  0  0  0  0  0  0  0  0  0
   19.2137   70.5563   -3.3106 C   0  0  1  0  0  0  0  0  0  0  0  0
   17.7167   70.1373   -5.0695 C   0  0  2  0  0  0  0  0  0  0  0  0
   16.9551   68.5764   -2.0871 H   0  0  0  0  0  0  0  0  0  0  0  0
   17.3994   67.0289   -4.0740 H   0  0  0  0  0  0  0  0  0  0  0  0
   16.0860   71.5694   -6.8769 O   0  0  0  0  0  0  0  0  0  0  0  0
   18.6325   70.2664  -10.4909 O   0  0  0  0  0  0  0  0  0  0  0  0
   17.9308   70.1894   -6.4880 N   0  0  0  0  0  0  0  0  0  0  0  0
   17.3553   70.9182   -8.6753 N   0  0  0  0  0  0  0  0  0  0  0  0
   17.0529   70.9379   -7.3073 C   0  0  0  0  0  0  0  0  0  0  0  0
   19.0005   69.5063   -7.0536 C   0  0  0  0  0  0  0  0  0  0  0  0
   19.2760   69.4971   -8.3593 C   0  0  0  0  0  0  0  0  0  0  0  0
   18.4071   70.2534   -9.2846 C   0  0  0  0  0  0  0  0  0  0  0  0
   16.7569   71.4305   -9.2660 H   0  0  0  0  0  0  0  0  0  0  0  0
   23.0625   72.8343   -1.7436 O   0  0  0  0  0  0  0  0  0  0  0  0
   22.6618   74.2527   -2.4079 P   0  0  2  0  0  0  0  0  0  0  0  0
   23.8659   75.2309   -1.9458 O   0  0  0  0  0  0  0  0  0  0  0  0
   21.2914   74.7410   -2.0372 O   0  0  0  0  0  0  0  0  0  0  0  0
   22.8923   74.0429   -3.9907 O   0  0  0  0  0  0  0  0  0  0  0  0
   23.2265   75.4664   -5.8539 O   0  0  0  0  0  0  0  0  0  0  0  0
   20.6448   72.6400   -7.4077 O   0  0  0  0  0  0  0  0  0  0  0  0
   20.2293   73.7064   -4.7199 O   0  0  0  0  0  0  0  0  0  0  0  0
   23.4680   72.5731   -8.0974 O   0  0  0  0  0  0  0  0  0  0  0  0
   21.6910   73.1272   -6.5676 C   0  0  2  0  0  0  0  0  0  0  0  0
   21.1490   74.2374   -5.6668 C   0  0  2  0  0  0  0  0  0  0  0  0
   22.8061   73.6674   -7.4658 C   0  0  1  0  0  0  0  0  0  0  0  0
   22.2842   74.9387   -4.9195 C   0  0  1  0  0  0  0  0  0  0  0  0
   23.8328   74.4611   -6.6631 C   0  0  1  0  0  0  0  0  0  0  0  0
   19.9247   72.2916   -6.8587 H   0  0  0  0  0  0  0  0  0  0  0  0
   19.5065   73.2597   -5.1872 H   0  0  0  0  0  0  0  0  0  0  0  0
   22.8255   72.0597   -8.6115 H   0  0  0  0  0  0  0  0  0  0  0  0
   25.8800   74.5869   -7.8011 O   0  0  0  0  0  0  0  0  0  0  0  0
   24.4452   76.3423   -8.0442 O   0  0  0  0  0  0  0  0  0  0  0  0
   24.7200   75.2503   -7.5699 C   0  0  0  0  0  0  0  0  0  0  0  0
  1  4  1  0
  1 24  1  0
  1  2  1  6
  1  3  2  0
 25 28  1  0
 25 24  1  0
 25 26  1  1
 25 27  2  0
  6 11  1  0
  6 12  1  0
 29 36  1  0
 29 37  1  0
  9  7  1  1
  7 13  1  0
 10  8  1  1
  8 14  1  0
  4  5  1  0
 36 28  1  1
 33 30  1  6
 30 38  1  0
 34 31  1  1
 31 39  1  0
 35 32  1  1
 32 40  1  0
 41 43  1  0
 15 19  2  0
 42 43  2  0
 16 22  2  0
 12 17  1  6
 17 19  1  0
 17 20  1  0
 18 19  1  0
 18 22  1  0
 18 23  1  0
  9 10  1  0
  9 11  1  0
 10 12  1  0
 11  5  1  6
 33 34  1  0
 33 35  1  0
 34 36  1  0
 35 37  1  0
 37 43  1  6
 20 21  2  0
 21 22  1  0
M  CHG  3   2  -1  26  -1  41  -1
M  END
>  <COMPND>  (77) 
    udp_gluA.pdb 

>  <AUTHOR>  (77) 
    GENERATED BY OPEN BABEL 3.1.1

>  <MASTER>  (77) 
        0    0    0    0    0    0    0    0   56    0   56    0

>  <minimizedAffinity>  (77) 
-8.03985

>  <CNNscore>  (77) 
0.3637499511

>  <CNNaffinity>  (77) 
4.1293373108

>  <CNN_VS>  (77) 
1.5020462275

>  <CNNaffinity_variance>  (77) 
0.6022111773

$$$$
78
     RDKit          3D

 43 45  0  0  0  0  0  0  0  0999 V2000
   17.2221   70.5106   -4.1493 P   0  0  2  0  0  0  0  0  0  0  0  0
   16.1430   71.5739   -4.7182 O   0  0  0  0  0  0  0  0  0  0  0  0
   16.9362   69.0764   -4.4853 O   0  0  0  0  0  0  0  0  0  0  0  0
   17.3150   70.8577   -2.5717 O   0  0  0  0  0  0  0  0  0  0  0  0
   17.5959   72.1913   -2.1882 C   0  0  0  0  0  0  0  0  0  0  0  0
   19.1078   71.3936   -0.4984 O   0  0  0  0  0  0  0  0  0  0  0  0
   18.0871   73.6366    1.2101 O   0  0  0  0  0  0  0  0  0  0  0  0
   20.4695   74.6104    0.3091 O   0  0  0  0  0  0  0  0  0  0  0  0
   18.3146   73.6054   -0.1991 C   0  0  1  0  0  0  0  0  0  0  0  0
   19.7990   73.6598   -0.4917 C   0  0  2  0  0  0  0  0  0  0  0  0
   17.9408   72.2187   -0.7047 C   0  0  1  0  0  0  0  0  0  0  0  0
   20.2317   72.2344   -0.1934 C   0  0  2  0  0  0  0  0  0  0  0  0
   18.3189   74.5131    1.5560 H   0  0  0  0  0  0  0  0  0  0  0  0
   20.1596   75.5014    0.0811 H   0  0  0  0  0  0  0  0  0  0  0  0
   22.9326   72.5336    0.5764 O   0  0  0  0  0  0  0  0  0  0  0  0
   24.4490   70.6221   -3.3339 O   0  0  0  0  0  0  0  0  0  0  0  0
   21.3523   71.8236   -0.9911 N   0  0  0  0  0  0  0  0  0  0  0  0
   23.6853   71.5822   -1.3723 N   0  0  0  0  0  0  0  0  0  0  0  0
   22.6693   72.0192   -0.5122 C   0  0  0  0  0  0  0  0  0  0  0  0
   21.1415   71.2331   -2.2312 C   0  0  0  0  0  0  0  0  0  0  0  0
   22.1201   70.8215   -3.0398 C   0  0  0  0  0  0  0  0  0  0  0  0
   23.5251   70.9901   -2.6146 C   0  0  0  0  0  0  0  0  0  0  0  0
   24.6107   71.7097   -1.0614 H   0  0  0  0  0  0  0  0  0  0  0  0
   18.6236   71.0712   -4.7277 O   0  0  0  0  0  0  0  0  0  0  0  0
   19.2814   70.9671   -6.2009 P   0  0  2  0  0  0  0  0  0  0  0  0
   18.3547   71.9524   -7.0902 O   0  0  0  0  0  0  0  0  0  0  0  0
   19.3829   69.5668   -6.7324 O   0  0  0  0  0  0  0  0  0  0  0  0
   20.6923   71.7392   -6.0745 O   0  0  0  0  0  0  0  0  0  0  0  0
   20.4031   74.0630   -5.7204 O   0  0  0  0  0  0  0  0  0  0  0  0
   24.4989   73.7867   -6.1848 O   0  0  0  0  0  0  0  0  0  0  0  0
   22.7060   72.2663   -7.9192 O   0  0  0  0  0  0  0  0  0  0  0  0
   23.3521   74.1589   -3.5395 O   0  0  0  0  0  0  0  0  0  0  0  0
   23.1980   73.3416   -5.8008 C   0  0  2  0  0  0  0  0  0  0  0  0
   22.2894   73.2957   -7.0296 C   0  0  2  0  0  0  0  0  0  0  0  0
   22.6468   74.3271   -4.7678 C   0  0  1  0  0  0  0  0  0  0  0  0
   20.8355   73.0469   -6.6260 C   0  0  1  0  0  0  0  0  0  0  0  0
   21.1605   74.0935   -4.5128 C   0  0  1  0  0  0  0  0  0  0  0  0
   24.8693   73.1757   -6.8411 H   0  0  0  0  0  0  0  0  0  0  0  0
   23.6279   72.4178   -8.1792 H   0  0  0  0  0  0  0  0  0  0  0  0
   24.2995   74.3047   -3.6881 H   0  0  0  0  0  0  0  0  0  0  0  0
   21.4661   76.2455   -3.6312 O   0  0  0  0  0  0  0  0  0  0  0  0
   19.4173   75.2861   -3.3464 O   0  0  0  0  0  0  0  0  0  0  0  0
   20.5624   75.2440   -3.7706 C   0  0  0  0  0  0  0  0  0  0  0  0
  1  4  1  0
  1 24  1  0
  1  2  1  6
  1  3  2  0
 25 28  1  0
 25 24  1  0
 25 26  1  6
 25 27  2  0
  6 11  1  0
  6 12  1  0
 29 36  1  0
 29 37  1  0
  9  7  1  1
  7 13  1  0
 10  8  1  1
  8 14  1  0
  4  5  1  0
 36 28  1  1
 33 30  1  6
 30 38  1  0
 34 31  1  6
 31 39  1  0
 35 32  1  1
 32 40  1  0
 41 43  1  0
 15 19  2  0
 42 43  2  0
 16 22  2  0
 12 17  1  6
 17 19  1  0
 17 20  1  0
 18 19  1  0
 18 22  1  0
 18 23  1  0
  9 10  1  0
  9 11  1  0
 10 12  1  0
 11  5  1  6
 33 34  1  0
 33 35  1  0
 34 36  1  0
 35 37  1  0
 37 43  1  1
 20 21  2  0
 21 22  1  0
M  CHG  3   2  -1  26  -1  41  -1
M  END
>  <COMPND>  (78) 
    udp_gluA.pdb 

>  <AUTHOR>  (78) 
    GENERATED BY OPEN BABEL 3.1.1

>  <MASTER>  (78) 
        0    0    0    0    0    0    0    0   56    0   56    0

>  <minimizedAffinity>  (78) 
-7.05139

>  <CNNscore>  (78) 
0.3231520057

>  <CNNaffinity>  (78) 
3.5139057636

>  <CNN_VS>  (78) 
1.1355257034

>  <CNNaffinity_variance>  (78) 
1.2512499094

$$$$
79
     RDKit          3D

 43 45  0  0  0  0  0  0  0  0999 V2000
   18.1123   70.1576   -1.7814 P   0  0  2  0  0  0  0  0  0  0  0  0
   16.8515   69.2164   -2.1600 O   0  0  0  0  0  0  0  0  0  0  0  0
   19.1977   69.4782   -0.9990 O   0  0  0  0  0  0  0  0  0  0  0  0
   17.4367   71.4459   -1.0731 O   0  0  0  0  0  0  0  0  0  0  0  0
   18.0006   72.7223   -1.3123 C   0  0  0  0  0  0  0  0  0  0  0  0
   20.2692   72.5795   -0.5310 O   0  0  0  0  0  0  0  0  0  0  0  0
   19.5461   74.7595    1.3968 O   0  0  0  0  0  0  0  0  0  0  0  0
   20.8793   76.1124   -0.5599 O   0  0  0  0  0  0  0  0  0  0  0  0
   19.1097   74.5611    0.0519 C   0  0  1  0  0  0  0  0  0  0  0  0
   20.2178   74.9167   -0.9166 C   0  0  2  0  0  0  0  0  0  0  0  0
   18.9558   73.0636   -0.1759 C   0  0  1  0  0  0  0  0  0  0  0  0
   21.1209   73.6986   -0.8235 C   0  0  2  0  0  0  0  0  0  0  0  0
   19.6516   75.7092    1.5661 H   0  0  0  0  0  0  0  0  0  0  0  0
   20.2626   76.8580   -0.6356 H   0  0  0  0  0  0  0  0  0  0  0  0
   23.4337   72.0908   -1.0294 O   0  0  0  0  0  0  0  0  0  0  0  0
   23.7347   72.7865   -5.5757 O   0  0  0  0  0  0  0  0  0  0  0  0
   21.8239   73.4427   -2.0488 N   0  0  0  0  0  0  0  0  0  0  0  0
   23.5820   72.4397   -3.2933 N   0  0  0  0  0  0  0  0  0  0  0  0
   22.9755   72.6207   -2.0434 C   0  0  0  0  0  0  0  0  0  0  0  0
   21.3710   74.0013   -3.2378 C   0  0  0  0  0  0  0  0  0  0  0  0
   21.9596   73.8195   -4.4216 C   0  0  0  0  0  0  0  0  0  0  0  0
   23.1692   72.9747   -4.5029 C   0  0  0  0  0  0  0  0  0  0  0  0
   24.3868   71.8729   -3.3144 H   0  0  0  0  0  0  0  0  0  0  0  0
   18.5782   70.7351   -3.2175 O   0  0  0  0  0  0  0  0  0  0  0  0
   19.6524   70.1761   -4.2886 P   0  0  2  0  0  0  0  0  0  0  0  0
   19.2881   68.6022   -4.3907 O   0  0  0  0  0  0  0  0  0  0  0  0
   21.0829   70.4578   -3.9304 O   0  0  0  0  0  0  0  0  0  0  0  0
   19.1816   70.7955   -5.7018 O   0  0  0  0  0  0  0  0  0  0  0  0
   16.8927   71.1880   -6.1667 O   0  0  0  0  0  0  0  0  0  0  0  0
   18.5271   71.1520   -9.9608 O   0  0  0  0  0  0  0  0  0  0  0  0
   19.3711   69.1916   -7.9662 O   0  0  0  0  0  0  0  0  0  0  0  0
   17.7750   73.6710   -8.7199 O   0  0  0  0  0  0  0  0  0  0  0  0
   18.5085   71.3822   -8.5521 C   0  0  2  0  0  0  0  0  0  0  0  0
   18.2558   70.0632   -7.8214 C   0  0  2  0  0  0  0  0  0  0  0  0
   17.3886   72.3806   -8.2507 C   0  0  1  0  0  0  0  0  0  0  0  0
   18.0009   70.3027   -6.3326 C   0  0  1  0  0  0  0  0  0  0  0  0
   17.1095   72.4695   -6.7531 C   0  0  1  0  0  0  0  0  0  0  0  0
   19.2312   70.5203  -10.1762 H   0  0  0  0  0  0  0  0  0  0  0  0
   19.5387   69.0355   -8.9085 H   0  0  0  0  0  0  0  0  0  0  0  0
   17.9557   73.6282   -9.6719 H   0  0  0  0  0  0  0  0  0  0  0  0
   15.9904   74.5225   -6.5677 O   0  0  0  0  0  0  0  0  0  0  0  0
   14.7547   72.6321   -6.2534 O   0  0  0  0  0  0  0  0  0  0  0  0
   15.8203   73.1791   -6.4950 C   0  0  0  0  0  0  0  0  0  0  0  0
  1  4  1  0
  1 24  1  0
  1  2  1  6
  1  3  2  0
 25 28  1  0
 25 24  1  0
 25 26  1  6
 25 27  2  0
  6 11  1  0
  6 12  1  0
 29 36  1  0
 29 37  1  0
  9  7  1  1
  7 13  1  0
 10  8  1  1
  8 14  1  0
  4  5  1  0
 36 28  1  6
 33 30  1  6
 30 38  1  0
 34 31  1  1
 31 39  1  0
 35 32  1  1
 32 40  1  0
 41 43  1  0
 15 19  2  0
 42 43  2  0
 16 22  2  0
 12 17  1  6
 17 19  1  0
 17 20  1  0
 18 19  1  0
 18 22  1  0
 18 23  1  0
  9 10  1  0
  9 11  1  0
 10 12  1  0
 11  5  1  6
 33 34  1  0
 33 35  1  0
 34 36  1  0
 35 37  1  0
 37 43  1  6
 20 21  2  0
 21 22  1  0
M  CHG  3   2  -1  26  -1  41  -1
M  END
>  <COMPND>  (79) 
    udp_gluA.pdb 

>  <AUTHOR>  (79) 
    GENERATED BY OPEN BABEL 3.1.1

>  <MASTER>  (79) 
        0    0    0    0    0    0    0    0   56    0   56    0

>  <minimizedAffinity>  (79) 
-7.28022

>  <CNNscore>  (79) 
0.3178815842

>  <CNNaffinity>  (79) 
3.8934261799

>  <CNN_VS>  (79) 
1.2376484871

>  <CNNaffinity_variance>  (79) 
0.4413234293

$$$$
80
     RDKit          3D

 43 45  0  0  0  0  0  0  0  0999 V2000
   22.9984   71.7399   -3.5749 P   0  0  2  0  0  0  0  0  0  0  0  0
   23.5716   72.5294   -4.8660 O   0  0  0  0  0  0  0  0  0  0  0  0
   23.7991   70.5411   -3.1584 O   0  0  0  0  0  0  0  0  0  0  0  0
   21.4503   71.4553   -3.9492 O   0  0  0  0  0  0  0  0  0  0  0  0
   20.8969   70.1935   -3.6234 C   0  0  0  0  0  0  0  0  0  0  0  0
   18.7280   71.0097   -4.2619 O   0  0  0  0  0  0  0  0  0  0  0  0
   17.6464   69.3515   -2.0098 O   0  0  0  0  0  0  0  0  0  0  0  0
   17.1095   67.8113   -4.1951 O   0  0  0  0  0  0  0  0  0  0  0  0
   18.7310   69.0744   -2.8961 C   0  0  1  0  0  0  0  0  0  0  0  0
   18.2059   68.6987   -4.2655 C   0  0  2  0  0  0  0  0  0  0  0  0
   19.4522   70.3850   -3.1800 C   0  0  1  0  0  0  0  0  0  0  0  0
   17.8263   70.0527   -4.8402 C   0  0  2  0  0  0  0  0  0  0  0  0
   17.1704   68.5289   -1.8138 H   0  0  0  0  0  0  0  0  0  0  0  0
   17.4026   66.9641   -3.8231 H   0  0  0  0  0  0  0  0  0  0  0  0
   15.9839   71.3187   -6.5663 O   0  0  0  0  0  0  0  0  0  0  0  0
   18.4125   70.1573  -10.3076 O   0  0  0  0  0  0  0  0  0  0  0  0
   17.9528   70.0964   -6.2695 N   0  0  0  0  0  0  0  0  0  0  0  0
   17.1947   70.7382   -8.4282 N   0  0  0  0  0  0  0  0  0  0  0  0
   16.9716   70.7582   -7.0451 C   0  0  0  0  0  0  0  0  0  0  0  0
   19.0392   69.4901   -6.8885 C   0  0  0  0  0  0  0  0  0  0  0  0
   19.2383   69.4795   -8.2080 C   0  0  0  0  0  0  0  0  0  0  0  0
   18.2592   70.1480   -9.0900 C   0  0  0  0  0  0  0  0  0  0  0  0
   16.5240   71.1908   -8.9890 H   0  0  0  0  0  0  0  0  0  0  0  0
   22.8941   72.9018   -2.4559 O   0  0  0  0  0  0  0  0  0  0  0  0
   22.7674   72.8171   -0.8465 P   0  0  2  0  0  0  0  0  0  0  0  0
   23.6869   74.0484   -0.3377 O   0  0  0  0  0  0  0  0  0  0  0  0
   23.1442   71.4838   -0.2684 O   0  0  0  0  0  0  0  0  0  0  0  0
   21.2549   73.2806   -0.5301 O   0  0  0  0  0  0  0  0  0  0  0  0
   19.4399   73.8074   -1.9574 O   0  0  0  0  0  0  0  0  0  0  0  0
   18.8488   76.4486    1.1640 O   0  0  0  0  0  0  0  0  0  0  0  0
   21.5337   75.9715    0.1161 O   0  0  0  0  0  0  0  0  0  0  0  0
   17.1789   74.0816    0.9193 O   0  0  0  0  0  0  0  0  0  0  0  0
   19.2652   75.2288    0.5501 C   0  0  2  0  0  0  0  0  0  0  0  0
   20.3331   75.5246   -0.5032 C   0  0  2  0  0  0  0  0  0  0  0  0
   18.0393   74.5846   -0.1011 C   0  0  1  0  0  0  0  0  0  0  0  0
   20.6370   74.2802   -1.3386 C   0  0  1  0  0  0  0  0  0  0  0  0
   18.4368   73.4305   -1.0167 C   0  0  1  0  0  0  0  0  0  0  0  0
   19.6116   76.8759    1.5846 H   0  0  0  0  0  0  0  0  0  0  0  0
   21.3482   76.7608    0.6481 H   0  0  0  0  0  0  0  0  0  0  0  0
   16.9187   74.8064    1.5091 H   0  0  0  0  0  0  0  0  0  0  0  0
   16.5981   72.0077   -1.3273 O   0  0  0  0  0  0  0  0  0  0  0  0
   17.0136   73.5422   -2.9619 O   0  0  0  0  0  0  0  0  0  0  0  0
   17.2930   73.0275   -1.8894 C   0  0  0  0  0  0  0  0  0  0  0  0
  1  4  1  0
  1 24  1  0
  1  2  1  6
  1  3  2  0
 25 28  1  0
 25 24  1  0
 25 26  1  1
 25 27  2  0
  6 11  1  0
  6 12  1  0
 29 36  1  0
 29 37  1  0
  9  7  1  1
  7 13  1  0
 10  8  1  1
  8 14  1  0
  4  5  1  0
 36 28  1  1
 33 30  1  6
 30 38  1  0
 34 31  1  1
 31 39  1  0
 35 32  1  1
 32 40  1  0
 41 43  1  0
 15 19  2  0
 42 43  2  0
 16 22  2  0
 12 17  1  6
 17 19  1  0
 17 20  1  0
 18 19  1  0
 18 22  1  0
 18 23  1  0
  9 10  1  0
  9 11  1  0
 10 12  1  0
 11  5  1  6
 33 34  1  0
 33 35  1  0
 34 36  1  0
 35 37  1  0
 37 43  1  6
 20 21  2  0
 21 22  1  0
M  CHG  3   2  -1  26  -1  41  -1
M  END
>  <COMPND>  (80) 
    udp_gluA.pdb 

>  <AUTHOR>  (80) 
    GENERATED BY OPEN BABEL 3.1.1

>  <MASTER>  (80) 
        0    0    0    0    0    0    0    0   56    0   56    0

>  <minimizedAffinity>  (80) 
-7.59549

>  <CNNscore>  (80) 
0.3157130778

>  <CNNaffinity>  (80) 
4.1701421738

>  <CNN_VS>  (80) 
1.3165683746

>  <CNNaffinity_variance>  (80) 
0.1897200942

$$$$
81
     RDKit          3D

 43 45  0  0  0  0  0  0  0  0999 V2000
   20.9448   70.7826   -1.4034 P   0  0  2  0  0  0  0  0  0  0  0  0
   22.5048   70.7028   -0.9806 O   0  0  0  0  0  0  0  0  0  0  0  0
   20.0285   69.8932   -0.6152 O   0  0  0  0  0  0  0  0  0  0  0  0
   20.9623   70.5333   -3.0020 O   0  0  0  0  0  0  0  0  0  0  0  0
   20.1761   69.4814   -3.5309 C   0  0  0  0  0  0  0  0  0  0  0  0
   18.2157   70.5947   -4.3647 O   0  0  0  0  0  0  0  0  0  0  0  0
   16.6539   68.8400   -2.5010 O   0  0  0  0  0  0  0  0  0  0  0  0
   16.3122   67.6055   -4.9084 O   0  0  0  0  0  0  0  0  0  0  0  0
   17.8294   68.5389   -3.2533 C   0  0  1  0  0  0  0  0  0  0  0  0
   17.4851   68.3687   -4.7178 C   0  0  2  0  0  0  0  0  0  0  0  0
   18.7054   69.7840   -3.2746 C   0  0  1  0  0  0  0  0  0  0  0  0
   17.3262   69.8090   -5.1739 C   0  0  2  0  0  0  0  0  0  0  0  0
   16.0783   68.0592   -2.4734 H   0  0  0  0  0  0  0  0  0  0  0  0
   16.4645   66.6969   -4.6031 H   0  0  0  0  0  0  0  0  0  0  0  0
   15.7806   71.2761   -7.0273 O   0  0  0  0  0  0  0  0  0  0  0  0
   18.7480   70.4277  -10.4505 O   0  0  0  0  0  0  0  0  0  0  0  0
   17.6715   69.9876   -6.5558 N   0  0  0  0  0  0  0  0  0  0  0  0
   17.2595   70.8513   -8.7307 N   0  0  0  0  0  0  0  0  0  0  0  0
   16.8262   70.7427   -7.4028 C   0  0  0  0  0  0  0  0  0  0  0  0
   18.8360   69.4200   -7.0586 C   0  0  0  0  0  0  0  0  0  0  0  0
   19.2358   69.5323   -8.3268 C   0  0  0  0  0  0  0  0  0  0  0  0
   18.4090   70.3044   -9.2774 C   0  0  0  0  0  0  0  0  0  0  0  0
   16.6863   71.3707   -9.3399 H   0  0  0  0  0  0  0  0  0  0  0  0
   20.6171   72.3610   -1.2853 O   0  0  0  0  0  0  0  0  0  0  0  0
   19.3343   73.2178   -1.7689 P   0  0  2  0  0  0  0  0  0  0  0  0
   19.5883   74.6715   -1.1037 O   0  0  0  0  0  0  0  0  0  0  0  0
   18.0124   72.5992   -1.4171 O   0  0  0  0  0  0  0  0  0  0  0  0
   19.5670   73.4468   -3.3488 O   0  0  0  0  0  0  0  0  0  0  0  0
   21.7431   74.0656   -4.0494 O   0  0  0  0  0  0  0  0  0  0  0  0
   19.5096   74.8752   -7.4294 O   0  0  0  0  0  0  0  0  0  0  0  0
   18.4952   75.5765   -4.7811 O   0  0  0  0  0  0  0  0  0  0  0  0
   21.1958   72.5094   -7.3267 O   0  0  0  0  0  0  0  0  0  0  0  0
   19.8531   74.1821   -6.2295 C   0  0  2  0  0  0  0  0  0  0  0  0
   19.8274   75.1557   -5.0510 C   0  0  2  0  0  0  0  0  0  0  0  0
   21.2562   73.5973   -6.4063 C   0  0  1  0  0  0  0  0  0  0  0  0
   20.4096   74.5083   -3.7937 C   0  0  1  0  0  0  0  0  0  0  0  0
   21.8174   73.0859   -5.0827 C   0  0  1  0  0  0  0  0  0  0  0  0
   18.6216   75.2555   -7.3404 H   0  0  0  0  0  0  0  0  0  0  0  0
   18.1196   75.9881   -5.5747 H   0  0  0  0  0  0  0  0  0  0  0  0
   20.8401   72.8215   -8.1734 H   0  0  0  0  0  0  0  0  0  0  0  0
   23.6920   71.9634   -4.2299 O   0  0  0  0  0  0  0  0  0  0  0  0
   24.0222   73.3167   -6.0350 O   0  0  0  0  0  0  0  0  0  0  0  0
   23.2845   72.8259   -5.1936 C   0  0  0  0  0  0  0  0  0  0  0  0
  1  4  1  0
  1 24  1  0
  1  2  1  1
  1  3  2  0
 25 28  1  0
 25 24  1  0
 25 26  1  1
 25 27  2  0
  6 11  1  0
  6 12  1  0
 29 36  1  0
 29 37  1  0
  9  7  1  1
  7 13  1  0
 10  8  1  1
  8 14  1  0
  4  5  1  0
 36 28  1  6
 33 30  1  6
 30 38  1  0
 34 31  1  1
 31 39  1  0
 35 32  1  6
 32 40  1  0
 41 43  1  0
 15 19  2  0
 42 43  2  0
 16 22  2  0
 12 17  1  6
 17 19  1  0
 17 20  1  0
 18 19  1  0
 18 22  1  0
 18 23  1  0
  9 10  1  0
  9 11  1  0
 10 12  1  0
 11  5  1  6
 33 34  1  0
 33 35  1  0
 34 36  1  0
 35 37  1  0
 37 43  1  6
 20 21  2  0
 21 22  1  0
M  CHG  3   2  -1  26  -1  41  -1
M  END
>  <COMPND>  (81) 
    udp_gluA.pdb 

>  <AUTHOR>  (81) 
    GENERATED BY OPEN BABEL 3.1.1

>  <MASTER>  (81) 
        0    0    0    0    0    0    0    0   56    0   56    0

>  <minimizedAffinity>  (81) 
-8.21393

>  <CNNscore>  (81) 
0.6572415233

>  <CNNaffinity>  (81) 
4.4499573708

>  <CNN_VS>  (81) 
2.9246966839

>  <CNNaffinity_variance>  (81) 
0.6020739675

$$$$
82
     RDKit          3D

 43 45  0  0  0  0  0  0  0  0999 V2000
   22.6390   73.4579   -6.6442 P   0  0  2  0  0  0  0  0  0  0  0  0
   22.8952   74.5837   -7.7782 O   0  0  0  0  0  0  0  0  0  0  0  0
   23.8763   72.9540   -5.9608 O   0  0  0  0  0  0  0  0  0  0  0  0
   21.7495   72.3387   -7.4019 O   0  0  0  0  0  0  0  0  0  0  0  0
   20.3448   72.3588   -7.2264 C   0  0  0  0  0  0  0  0  0  0  0  0
   19.7286   70.0434   -7.0343 O   0  0  0  0  0  0  0  0  0  0  0  0
   17.9996   70.4962   -9.4420 O   0  0  0  0  0  0  0  0  0  0  0  0
   16.2022   70.5819   -7.3930 O   0  0  0  0  0  0  0  0  0  0  0  0
   18.2873   71.3788   -8.3572 C   0  0  1  0  0  0  0  0  0  0  0  0
   17.5387   70.9441   -7.1151 C   0  0  2  0  0  0  0  0  0  0  0  0
   19.7376   71.1622   -7.9473 C   0  0  1  0  0  0  0  0  0  0  0  0
   18.3755   69.7696   -6.6374 C   0  0  2  0  0  0  0  0  0  0  0  0
   17.0781   70.6164   -9.7213 H   0  0  0  0  0  0  0  0  0  0  0  0
   15.7112   71.3635   -7.6931 H   0  0  0  0  0  0  0  0  0  0  0  0
   16.2147   68.6184   -5.2295 O   0  0  0  0  0  0  0  0  0  0  0  0
   18.3120   69.2036   -1.1672 O   0  0  0  0  0  0  0  0  0  0  0  0
   18.3307   69.6088   -5.2115 N   0  0  0  0  0  0  0  0  0  0  0  0
   17.2609   68.9119   -3.2075 N   0  0  0  0  0  0  0  0  0  0  0  0
   17.1979   69.0182   -4.6031 C   0  0  0  0  0  0  0  0  0  0  0  0
   19.4003   70.0318   -4.4319 C   0  0  0  0  0  0  0  0  0  0  0  0
   19.4459   69.9237   -3.1026 C   0  0  0  0  0  0  0  0  0  0  0  0
   18.3022   69.3186   -2.3890 C   0  0  0  0  0  0  0  0  0  0  0  0
   16.4829   68.5058   -2.7612 H   0  0  0  0  0  0  0  0  0  0  0  0
   21.5695   74.1685   -5.6624 O   0  0  0  0  0  0  0  0  0  0  0  0
   21.7634   75.2951   -4.5192 P   0  0  2  0  0  0  0  0  0  0  0  0
   20.2874   75.9467   -4.3880 O   0  0  0  0  0  0  0  0  0  0  0  0
   22.8532   76.2859   -4.8095 O   0  0  0  0  0  0  0  0  0  0  0  0
   21.9632   74.4613   -3.1527 O   0  0  0  0  0  0  0  0  0  0  0  0
   22.2193   72.1251   -2.8597 O   0  0  0  0  0  0  0  0  0  0  0  0
   20.3433   73.2127    0.6568 O   0  0  0  0  0  0  0  0  0  0  0  0
   19.4859   74.3523   -1.8928 O   0  0  0  0  0  0  0  0  0  0  0  0
   23.1872   72.6100    0.6461 O   0  0  0  0  0  0  0  0  0  0  0  0
   21.1998   73.3886   -0.4716 C   0  0  2  0  0  0  0  0  0  0  0  0
   20.3846   73.2573   -1.7583 C   0  0  2  0  0  0  0  0  0  0  0  0
   22.2834   72.3093   -0.4156 C   0  0  1  0  0  0  0  0  0  0  0  0
   21.2992   73.2103   -2.9831 C   0  0  1  0  0  0  0  0  0  0  0  0
   23.0701   72.2415   -1.7214 C   0  0  1  0  0  0  0  0  0  0  0  0
   19.6465   73.8877    0.6424 H   0  0  0  0  0  0  0  0  0  0  0  0
   18.9027   74.3883   -1.1189 H   0  0  0  0  0  0  0  0  0  0  0  0
   22.6990   72.6561    1.4830 H   0  0  0  0  0  0  0  0  0  0  0  0
   24.2489   70.7206   -3.0625 O   0  0  0  0  0  0  0  0  0  0  0  0
   24.1939   70.3056   -0.8211 O   0  0  0  0  0  0  0  0  0  0  0  0
   23.8872   70.9923   -1.7841 C   0  0  0  0  0  0  0  0  0  0  0  0
  1  4  1  0
  1 24  1  0
  1  2  1  6
  1  3  2  0
 25 28  1  0
 25 24  1  0
 25 26  1  1
 25 27  2  0
  6 11  1  0
  6 12  1  0
 29 36  1  0
 29 37  1  0
  9  7  1  6
  7 13  1  0
 10  8  1  6
  8 14  1  0
  4  5  1  0
 36 28  1  1
 33 30  1  1
 30 38  1  0
 34 31  1  6
 31 39  1  0
 35 32  1  1
 32 40  1  0
 41 43  1  0
 15 19  2  0
 42 43  2  0
 16 22  2  0
 12 17  1  1
 17 19  1  0
 17 20  1  0
 18 19  1  0
 18 22  1  0
 18 23  1  0
  9 10  1  0
  9 11  1  0
 10 12  1  0
 11  5  1  1
 33 34  1  0
 33 35  1  0
 34 36  1  0
 35 37  1  0
 37 43  1  1
 20 21  2  0
 21 22  1  0
M  CHG  3   2  -1  26  -1  41  -1
M  END
>  <COMPND>  (82) 
    udp_gluA.pdb 

>  <AUTHOR>  (82) 
    GENERATED BY OPEN BABEL 3.1.1

>  <MASTER>  (82) 
        0    0    0    0    0    0    0    0   56    0   56    0

>  <minimizedAffinity>  (82) 
-7.73847

>  <CNNscore>  (82) 
0.5908008814

>  <CNNaffinity>  (82) 
4.3773012161

>  <CNN_VS>  (82) 
2.5861134529

>  <CNNaffinity_variance>  (82) 
0.7574421763

$$$$
83
     RDKit          3D

 43 45  0  0  0  0  0  0  0  0999 V2000
   19.4936   73.8884   -6.4799 P   0  0  2  0  0  0  0  0  0  0  0  0
   18.7558   73.5319   -5.0844 O   0  0  0  0  0  0  0  0  0  0  0  0
   19.5395   75.3500   -6.8169 O   0  0  0  0  0  0  0  0  0  0  0  0
   18.7549   72.9404   -7.5632 O   0  0  0  0  0  0  0  0  0  0  0  0
   19.0938   71.5663   -7.6016 C   0  0  0  0  0  0  0  0  0  0  0  0
   17.9171   69.6874   -6.6727 O   0  0  0  0  0  0  0  0  0  0  0  0
   15.4412   70.8838   -7.8687 O   0  0  0  0  0  0  0  0  0  0  0  0
   15.2466   71.6085   -5.2471 O   0  0  0  0  0  0  0  0  0  0  0  0
   16.5695   71.5364   -7.2859 C   0  0  1  0  0  0  0  0  0  0  0  0
   16.5371   71.3935   -5.7790 C   0  0  2  0  0  0  0  0  0  0  0  0
   17.8144   70.7412   -7.6547 C   0  0  1  0  0  0  0  0  0  0  0  0
   17.0182   69.9653   -5.5873 C   0  0  2  0  0  0  0  0  0  0  0  0
   14.6336   71.3738   -7.6467 H   0  0  0  0  0  0  0  0  0  0  0  0
   14.9861   72.5318   -5.3940 H   0  0  0  0  0  0  0  0  0  0  0  0
   15.7907   70.0328   -3.0446 O   0  0  0  0  0  0  0  0  0  0  0  0
   19.7912   69.2569   -0.8909 O   0  0  0  0  0  0  0  0  0  0  0  0
   17.7153   69.7839   -4.3456 N   0  0  0  0  0  0  0  0  0  0  0  0
   17.7845   69.6473   -1.9743 N   0  0  0  0  0  0  0  0  0  0  0  0
   17.0049   69.8364   -3.1230 C   0  0  0  0  0  0  0  0  0  0  0  0
   19.0860   69.5555   -4.3467 C   0  0  0  0  0  0  0  0  0  0  0  0
   19.8155   69.3769   -3.2436 C   0  0  0  0  0  0  0  0  0  0  0  0
   19.1500   69.4177   -1.9250 C   0  0  0  0  0  0  0  0  0  0  0  0
   17.3124   69.6816   -1.1111 H   0  0  0  0  0  0  0  0  0  0  0  0
   20.9418   73.1900   -6.3135 O   0  0  0  0  0  0  0  0  0  0  0  0
   22.2478   73.6413   -5.4742 P   0  0  2  0  0  0  0  0  0  0  0  0
   22.4886   75.1675   -5.9572 O   0  0  0  0  0  0  0  0  0  0  0  0
   23.4360   72.7413   -5.6529 O   0  0  0  0  0  0  0  0  0  0  0  0
   21.7306   73.7729   -3.9518 O   0  0  0  0  0  0  0  0  0  0  0  0
   22.1866   71.6751   -2.9516 O   0  0  0  0  0  0  0  0  0  0  0  0
   20.7033   73.8271    0.2478 O   0  0  0  0  0  0  0  0  0  0  0  0
   19.4486   74.0301   -2.3826 O   0  0  0  0  0  0  0  0  0  0  0  0
   23.5579   73.3245    0.0251 O   0  0  0  0  0  0  0  0  0  0  0  0
   21.3940   73.6374   -0.9871 C   0  0  2  0  0  0  0  0  0  0  0  0
   20.4322   73.0648   -2.0286 C   0  0  2  0  0  0  0  0  0  0  0  0
   22.5493   72.6652   -0.7382 C   0  0  1  0  0  0  0  0  0  0  0  0
   21.1838   72.6343   -3.2890 C   0  0  1  0  0  0  0  0  0  0  0  0
   23.1655   72.1850   -2.0490 C   0  0  1  0  0  0  0  0  0  0  0  0
   19.9644   74.4415    0.1142 H   0  0  0  0  0  0  0  0  0  0  0  0
   18.9680   74.3080   -1.5875 H   0  0  0  0  0  0  0  0  0  0  0  0
   23.1786   73.6353    0.8621 H   0  0  0  0  0  0  0  0  0  0  0  0
   24.5459   70.5394   -2.9913 O   0  0  0  0  0  0  0  0  0  0  0  0
   24.3099   70.5253   -0.7235 O   0  0  0  0  0  0  0  0  0  0  0  0
   24.0542   71.0066   -1.8171 C   0  0  0  0  0  0  0  0  0  0  0  0
  1  4  1  0
  1 24  1  0
  1  2  1  1
  1  3  2  0
 25 28  1  0
 25 24  1  0
 25 26  1  6
 25 27  2  0
  6 11  1  0
  6 12  1  0
 29 36  1  0
 29 37  1  0
  9  7  1  6
  7 13  1  0
 10  8  1  6
  8 14  1  0
  4  5  1  0
 36 28  1  1
 33 30  1  1
 30 38  1  0
 34 31  1  6
 31 39  1  0
 35 32  1  1
 32 40  1  0
 41 43  1  0
 15 19  2  0
 42 43  2  0
 16 22  2  0
 12 17  1  1
 17 19  1  0
 17 20  1  0
 18 19  1  0
 18 22  1  0
 18 23  1  0
  9 10  1  0
  9 11  1  0
 10 12  1  0
 11  5  1  1
 33 34  1  0
 33 35  1  0
 34 36  1  0
 35 37  1  0
 37 43  1  1
 20 21  2  0
 21 22  1  0
M  CHG  3   2  -1  26  -1  41  -1
M  END
>  <COMPND>  (83) 
    udp_gluA.pdb 

>  <AUTHOR>  (83) 
    GENERATED BY OPEN BABEL 3.1.1

>  <MASTER>  (83) 
        0    0    0    0    0    0    0    0   56    0   56    0

>  <minimizedAffinity>  (83) 
-7.68315

>  <CNNscore>  (83) 
0.5828267932

>  <CNNaffinity>  (83) 
4.3168711662

>  <CNN_VS>  (83) 
2.5159881115

>  <CNNaffinity_variance>  (83) 
0.4106512070

$$$$
84
     RDKit          3D

 43 45  0  0  0  0  0  0  0  0999 V2000
   20.2254   70.7383   -1.4063 P   0  0  2  0  0  0  0  0  0  0  0  0
   20.0889   69.3120   -0.6541 O   0  0  0  0  0  0  0  0  0  0  0  0
   19.8620   71.9317   -0.5724 O   0  0  0  0  0  0  0  0  0  0  0  0
   19.3697   70.5441   -2.7657 O   0  0  0  0  0  0  0  0  0  0  0  0
   18.5407   71.6063   -3.2004 C   0  0  0  0  0  0  0  0  0  0  0  0
   16.6368   71.3643   -4.6475 O   0  0  0  0  0  0  0  0  0  0  0  0
   15.6398   69.3262   -2.6869 O   0  0  0  0  0  0  0  0  0  0  0  0
   16.6692   67.7793   -4.6827 O   0  0  0  0  0  0  0  0  0  0  0  0
   16.9777   69.6014   -3.1025 C   0  0  1  0  0  0  0  0  0  0  0  0
   17.2118   69.0705   -4.5010 C   0  0  2  0  0  0  0  0  0  0  0  0
   17.1064   71.1047   -3.3068 C   0  0  1  0  0  0  0  0  0  0  0  0
   16.5227   70.1201   -5.3562 C   0  0  2  0  0  0  0  0  0  0  0  0
   15.5333   68.3714   -2.5500 H   0  0  0  0  0  0  0  0  0  0  0  0
   17.1415   67.1476   -4.1172 H   0  0  0  0  0  0  0  0  0  0  0  0
   15.3381   71.4611   -7.5414 O   0  0  0  0  0  0  0  0  0  0  0  0
   18.9545   70.5990  -10.2658 O   0  0  0  0  0  0  0  0  0  0  0  0
   17.1327   70.2610   -6.6481 N   0  0  0  0  0  0  0  0  0  0  0  0
   17.1400   71.0295   -8.8965 N   0  0  0  0  0  0  0  0  0  0  0  0
   16.4528   70.9533   -7.6779 C   0  0  0  0  0  0  0  0  0  0  0  0
   18.3902   69.7189   -6.8842 C   0  0  0  0  0  0  0  0  0  0  0  0
   19.0326   69.7998   -8.0511 C   0  0  0  0  0  0  0  0  0  0  0  0
   18.3911   70.5058   -9.1795 C   0  0  0  0  0  0  0  0  0  0  0  0
   16.6858   71.5050   -9.6293 H   0  0  0  0  0  0  0  0  0  0  0  0
   21.7533   70.7256   -1.9338 O   0  0  0  0  0  0  0  0  0  0  0  0
   23.0507   71.5592   -1.4486 P   0  0  2  0  0  0  0  0  0  0  0  0
   24.2839   70.7338   -2.0954 O   0  0  0  0  0  0  0  0  0  0  0  0
   23.1429   71.7444    0.0384 O   0  0  0  0  0  0  0  0  0  0  0  0
   22.9934   72.9331   -2.2921 O   0  0  0  0  0  0  0  0  0  0  0  0
   21.1339   74.0725   -3.2159 O   0  0  0  0  0  0  0  0  0  0  0  0
   24.1120   74.9848   -5.9300 O   0  0  0  0  0  0  0  0  0  0  0  0
   23.8704   72.2812   -4.8498 O   0  0  0  0  0  0  0  0  0  0  0  0
   23.2304   76.9780   -4.0063 O   0  0  0  0  0  0  0  0  0  0  0  0
   23.5680   74.6798   -4.6459 C   0  0  2  0  0  0  0  0  0  0  0  0
   22.8972   73.3065   -4.6873 C   0  0  2  0  0  0  0  0  0  0  0  0
   22.5438   75.7621   -4.2970 C   0  0  1  0  0  0  0  0  0  0  0  0
   22.1072   73.0446   -3.4043 C   0  0  1  0  0  0  0  0  0  0  0  0
   21.7109   75.3693   -3.0802 C   0  0  1  0  0  0  0  0  0  0  0  0
   24.7656   74.3102   -6.1730 H   0  0  0  0  0  0  0  0  0  0  0  0
   24.3756   72.4413   -5.6619 H   0  0  0  0  0  0  0  0  0  0  0  0
   23.7645   77.2390   -4.7728 H   0  0  0  0  0  0  0  0  0  0  0  0
   20.8455   77.4130   -2.3212 O   0  0  0  0  0  0  0  0  0  0  0  0
   19.3931   75.9848   -3.3461 O   0  0  0  0  0  0  0  0  0  0  0  0
   20.5157   76.2560   -2.9470 C   0  0  0  0  0  0  0  0  0  0  0  0
  1  4  1  0
  1 24  1  0
  1  2  1  1
  1  3  2  0
 25 28  1  0
 25 24  1  0
 25 26  1  6
 25 27  2  0
  6 11  1  0
  6 12  1  0
 29 36  1  0
 29 37  1  0
  9  7  1  6
  7 13  1  0
 10  8  1  1
  8 14  1  0
  4  5  1  0
 36 28  1  1
 33 30  1  6
 30 38  1  0
 34 31  1  1
 31 39  1  0
 35 32  1  1
 32 40  1  0
 41 43  1  0
 15 19  2  0
 42 43  2  0
 16 22  2  0
 12 17  1  6
 17 19  1  0
 17 20  1  0
 18 19  1  0
 18 22  1  0
 18 23  1  0
  9 10  1  0
  9 11  1  0
 10 12  1  0
 11  5  1  6
 33 34  1  0
 33 35  1  0
 34 36  1  0
 35 37  1  0
 37 43  1  6
 20 21  2  0
 21 22  1  0
M  CHG  3   2  -1  26  -1  41  -1
M  END
>  <COMPND>  (84) 
    udp_gluA.pdb 

>  <AUTHOR>  (84) 
    GENERATED BY OPEN BABEL 3.1.1

>  <MASTER>  (84) 
        0    0    0    0    0    0    0    0   56    0   56    0

>  <minimizedAffinity>  (84) 
-7.62544

>  <CNNscore>  (84) 
0.5408196449

>  <CNNaffinity>  (84) 
4.5224862099

>  <CNN_VS>  (84) 
2.4458494186

>  <CNNaffinity_variance>  (84) 
0.2122489214

$$$$
85
     RDKit          3D

 43 45  0  0  0  0  0  0  0  0999 V2000
   20.6025   70.6638   -1.8374 P   0  0  2  0  0  0  0  0  0  0  0  0
   20.4302   69.5642   -0.6626 O   0  0  0  0  0  0  0  0  0  0  0  0
   20.3320   72.0807   -1.4237 O   0  0  0  0  0  0  0  0  0  0  0  0
   19.6818   70.0951   -3.0401 O   0  0  0  0  0  0  0  0  0  0  0  0
   18.8837   68.9510   -2.7977 C   0  0  0  0  0  0  0  0  0  0  0  0
   17.2168   70.2833   -3.9041 O   0  0  0  0  0  0  0  0  0  0  0  0
   15.1897   68.5374   -2.5497 O   0  0  0  0  0  0  0  0  0  0  0  0
   15.2659   67.5128   -5.0757 O   0  0  0  0  0  0  0  0  0  0  0  0
   16.4712   68.1929   -3.0765 C   0  0  1  0  0  0  0  0  0  0  0  0
   16.4241   68.1583   -4.5893 C   0  0  2  0  0  0  0  0  0  0  0  0
   17.4158   69.3578   -2.8137 C   0  0  1  0  0  0  0  0  0  0  0  0
   16.4607   69.6360   -4.9398 C   0  0  2  0  0  0  0  0  0  0  0  0
   14.5688   67.8081   -2.7058 H   0  0  0  0  0  0  0  0  0  0  0  0
   15.2900   66.5750   -4.8270 H   0  0  0  0  0  0  0  0  0  0  0  0
   15.3527   71.2272   -6.9934 O   0  0  0  0  0  0  0  0  0  0  0  0
   18.9781   70.5173   -9.7496 O   0  0  0  0  0  0  0  0  0  0  0  0
   17.0937   69.8838   -6.2043 N   0  0  0  0  0  0  0  0  0  0  0  0
   17.1590   70.8713   -8.3646 N   0  0  0  0  0  0  0  0  0  0  0  0
   16.4520   70.6978   -7.1675 C   0  0  0  0  0  0  0  0  0  0  0  0
   18.3360   69.3252   -6.4792 C   0  0  0  0  0  0  0  0  0  0  0  0
   18.9976   69.4997   -7.6249 C   0  0  0  0  0  0  0  0  0  0  0  0
   18.3962   70.3359   -8.6844 C   0  0  0  0  0  0  0  0  0  0  0  0
   16.7313   71.4324   -9.0513 H   0  0  0  0  0  0  0  0  0  0  0  0
   22.1044   70.3931   -2.3703 O   0  0  0  0  0  0  0  0  0  0  0  0
   23.3520   71.3987   -2.5845 P   0  0  2  0  0  0  0  0  0  0  0  0
   24.6222   70.3990   -2.6712 O   0  0  0  0  0  0  0  0  0  0  0  0
   23.4732   72.4626   -1.5322 O   0  0  0  0  0  0  0  0  0  0  0  0
   23.1723   71.9598   -4.0863 O   0  0  0  0  0  0  0  0  0  0  0  0
   23.6097   74.1322   -4.9221 O   0  0  0  0  0  0  0  0  0  0  0  0
   20.5163   72.8980   -7.3667 O   0  0  0  0  0  0  0  0  0  0  0  0
   20.4487   72.3445   -4.4990 O   0  0  0  0  0  0  0  0  0  0  0  0
   23.2429   72.9435   -8.3739 O   0  0  0  0  0  0  0  0  0  0  0  0
   21.6784   72.7366   -6.5533 C   0  0  2  0  0  0  0  0  0  0  0  0
   21.3790   73.2151   -5.1325 C   0  0  2  0  0  0  0  0  0  0  0  0
   22.8057   73.5687   -7.1688 C   0  0  1  0  0  0  0  0  0  0  0  0
   22.6568   73.2735   -4.2942 C   0  0  1  0  0  0  0  0  0  0  0  0
   23.9950   73.6840   -6.2197 C   0  0  1  0  0  0  0  0  0  0  0  0
   19.7865   72.3780   -6.9949 H   0  0  0  0  0  0  0  0  0  0  0  0
   19.6356   72.3025   -5.0257 H   0  0  0  0  0  0  0  0  0  0  0  0
   22.4952   72.8639   -8.9866 H   0  0  0  0  0  0  0  0  0  0  0  0
   24.3136   75.6107   -7.5189 O   0  0  0  0  0  0  0  0  0  0  0  0
   26.1083   74.8419   -6.3411 O   0  0  0  0  0  0  0  0  0  0  0  0
   24.9370   74.7498   -6.6768 C   0  0  0  0  0  0  0  0  0  0  0  0
  1  4  1  0
  1 24  1  0
  1  2  1  1
  1  3  2  0
 25 28  1  0
 25 24  1  0
 25 26  1  6
 25 27  2  0
  6 11  1  0
  6 12  1  0
 29 36  1  0
 29 37  1  0
  9  7  1  1
  7 13  1  0
 10  8  1  1
  8 14  1  0
  4  5  1  0
 36 28  1  6
 33 30  1  6
 30 38  1  0
 34 31  1  1
 31 39  1  0
 35 32  1  6
 32 40  1  0
 41 43  1  0
 15 19  2  0
 42 43  2  0
 16 22  2  0
 12 17  1  6
 17 19  1  0
 17 20  1  0
 18 19  1  0
 18 22  1  0
 18 23  1  0
  9 10  1  0
  9 11  1  0
 10 12  1  0
 11  5  1  6
 33 34  1  0
 33 35  1  0
 34 36  1  0
 35 37  1  0
 37 43  1  6
 20 21  2  0
 21 22  1  0
M  CHG  3   2  -1  26  -1  41  -1
M  END
>  <COMPND>  (85) 
    udp_gluA.pdb 

>  <AUTHOR>  (85) 
    GENERATED BY OPEN BABEL 3.1.1

>  <MASTER>  (85) 
        0    0    0    0    0    0    0    0   56    0   56    0

>  <minimizedAffinity>  (85) 
-8.18217

>  <CNNscore>  (85) 
0.5379633904

>  <CNNaffinity>  (85) 
4.4453430176

>  <CNN_VS>  (85) 
2.3914318085

>  <CNNaffinity_variance>  (85) 
0.4435907304

$$$$
86
     RDKit          3D

 43 45  0  0  0  0  0  0  0  0999 V2000
   17.8455   69.1566   -4.0487 P   0  0  2  0  0  0  0  0  0  0  0  0
   18.3498   67.8143   -3.2987 O   0  0  0  0  0  0  0  0  0  0  0  0
   16.3580   69.3540   -4.0624 O   0  0  0  0  0  0  0  0  0  0  0  0
   18.5577   69.0818   -5.4997 O   0  0  0  0  0  0  0  0  0  0  0  0
   18.6639   70.2697   -6.2627 C   0  0  0  0  0  0  0  0  0  0  0  0
   16.5366   70.3548   -7.3784 O   0  0  0  0  0  0  0  0  0  0  0  0
   18.0931   70.4515   -9.9396 O   0  0  0  0  0  0  0  0  0  0  0  0
   17.3913   73.0605   -9.5700 O   0  0  0  0  0  0  0  0  0  0  0  0
   18.3987   71.0370   -8.6738 C   0  0  1  0  0  0  0  0  0  0  0  0
   17.5149   72.2412   -8.4263 C   0  0  2  0  0  0  0  0  0  0  0  0
   17.9377   70.0749   -7.5875 C   0  0  1  0  0  0  0  0  0  0  0  0
   16.2008   71.5913   -8.0277 C   0  0  2  0  0  0  0  0  0  0  0  0
   18.3784   71.0482  -10.6496 H   0  0  0  0  0  0  0  0  0  0  0  0
   18.2540   73.4509   -9.7827 H   0  0  0  0  0  0  0  0  0  0  0  0
   14.2364   73.4586   -8.8221 O   0  0  0  0  0  0  0  0  0  0  0  0
   13.3470   74.6535   -4.4603 O   0  0  0  0  0  0  0  0  0  0  0  0
   15.4407   72.4037   -7.1205 N   0  0  0  0  0  0  0  0  0  0  0  0
   13.7961   74.0527   -6.6490 N   0  0  0  0  0  0  0  0  0  0  0  0
   14.4779   73.3109   -7.6226 C   0  0  0  0  0  0  0  0  0  0  0  0
   15.6507   72.2965   -5.7510 C   0  0  0  0  0  0  0  0  0  0  0  0
   14.9930   73.0103   -4.8352 C   0  0  0  0  0  0  0  0  0  0  0  0
   13.9706   73.9816   -5.2764 C   0  0  0  0  0  0  0  0  0  0  0  0
   13.1222   74.6924   -6.9745 H   0  0  0  0  0  0  0  0  0  0  0  0
   18.6729   70.3246   -3.2976 O   0  0  0  0  0  0  0  0  0  0  0  0
   18.6428   70.8269   -1.7612 P   0  0  2  0  0  0  0  0  0  0  0  0
   19.1817   69.5397   -0.9407 O   0  0  0  0  0  0  0  0  0  0  0  0
   17.3056   71.3351   -1.3056 O   0  0  0  0  0  0  0  0  0  0  0  0
   19.8388   71.9046   -1.6594 O   0  0  0  0  0  0  0  0  0  0  0  0
   22.0797   71.1826   -1.9167 O   0  0  0  0  0  0  0  0  0  0  0  0
   22.5867   74.8881   -0.1617 O   0  0  0  0  0  0  0  0  0  0  0  0
   20.4923   73.0798    0.7753 O   0  0  0  0  0  0  0  0  0  0  0  0
   23.0993   74.5361   -3.0015 O   0  0  0  0  0  0  0  0  0  0  0  0
   21.9448   73.9111   -0.9812 C   0  0  2  0  0  0  0  0  0  0  0  0
   21.5332   72.7143   -0.1234 C   0  0  2  0  0  0  0  0  0  0  0  0
   22.9366   73.4752   -2.0621 C   0  0  1  0  0  0  0  0  0  0  0  0
   21.0526   71.5546   -0.9969 C   0  0  1  0  0  0  0  0  0  0  0  0
   22.4423   72.2373   -2.8050 C   0  0  1  0  0  0  0  0  0  0  0  0
   21.9753   75.1800    0.5327 H   0  0  0  0  0  0  0  0  0  0  0  0
   20.7902   73.8154    1.3325 H   0  0  0  0  0  0  0  0  0  0  0  0
   23.4134   75.3301   -2.5414 H   0  0  0  0  0  0  0  0  0  0  0  0
   23.7668   72.3584   -4.7370 O   0  0  0  0  0  0  0  0  0  0  0  0
   24.1590   70.6202   -3.3144 O   0  0  0  0  0  0  0  0  0  0  0  0
   23.5414   71.6307   -3.6151 C   0  0  0  0  0  0  0  0  0  0  0  0
  1  4  1  0
  1 24  1  0
  1  2  1  1
  1  3  2  0
 25 28  1  0
 25 24  1  0
 25 26  1  1
 25 27  2  0
  6 11  1  0
  6 12  1  0
 29 36  1  0
 29 37  1  0
  9  7  1  6
  7 13  1  0
 10  8  1  6
  8 14  1  0
  4  5  1  0
 36 28  1  6
 33 30  1  1
 30 38  1  0
 34 31  1  1
 31 39  1  0
 35 32  1  6
 32 40  1  0
 41 43  1  0
 15 19  2  0
 42 43  2  0
 16 22  2  0
 12 17  1  1
 17 19  1  0
 17 20  1  0
 18 19  1  0
 18 22  1  0
 18 23  1  0
  9 10  1  0
  9 11  1  0
 10 12  1  0
 11  5  1  1
 33 34  1  0
 33 35  1  0
 34 36  1  0
 35 37  1  0
 37 43  1  6
 20 21  2  0
 21 22  1  0
M  CHG  3   2  -1  26  -1  41  -1
M  END
>  <COMPND>  (86) 
    udp_gluA.pdb 

>  <AUTHOR>  (86) 
    GENERATED BY OPEN BABEL 3.1.1

>  <MASTER>  (86) 
        0    0    0    0    0    0    0    0   56    0   56    0

>  <minimizedAffinity>  (86) 
-8.37523

>  <CNNscore>  (86) 
0.5305415392

>  <CNNaffinity>  (86) 
4.4416790009

>  <CNN_VS>  (86) 
2.3564951420

>  <CNNaffinity_variance>  (86) 
0.1323119104

$$$$
87
     RDKit          3D

 43 45  0  0  0  0  0  0  0  0999 V2000
   21.9098   72.1147   -3.2666 P   0  0  2  0  0  0  0  0  0  0  0  0
   20.8627   72.8096   -4.2862 O   0  0  0  0  0  0  0  0  0  0  0  0
   23.2040   71.6778   -3.8880 O   0  0  0  0  0  0  0  0  0  0  0  0
   21.0432   70.9485   -2.5547 O   0  0  0  0  0  0  0  0  0  0  0  0
   20.3484   70.0265   -3.3742 C   0  0  0  0  0  0  0  0  0  0  0  0
   18.2450   70.8261   -4.2191 O   0  0  0  0  0  0  0  0  0  0  0  0
   16.9588   68.9843   -2.2329 O   0  0  0  0  0  0  0  0  0  0  0  0
   16.7455   67.5879   -4.5654 O   0  0  0  0  0  0  0  0  0  0  0  0
   18.1518   68.8001   -2.9953 C   0  0  1  0  0  0  0  0  0  0  0  0
   17.8100   68.5077   -4.4410 C   0  0  2  0  0  0  0  0  0  0  0  0
   18.8548   70.1466   -3.1003 C   0  0  1  0  0  0  0  0  0  0  0  0
   17.4545   69.8881   -4.9665 C   0  0  2  0  0  0  0  0  0  0  0  0
   16.4922   68.1373   -2.1522 H   0  0  0  0  0  0  0  0  0  0  0  0
   17.0216   66.7250   -4.2175 H   0  0  0  0  0  0  0  0  0  0  0  0
   15.7969   71.2334   -6.8155 O   0  0  0  0  0  0  0  0  0  0  0  0
   18.6933   70.3934  -10.3010 O   0  0  0  0  0  0  0  0  0  0  0  0
   17.7513   70.0359   -6.3632 N   0  0  0  0  0  0  0  0  0  0  0  0
   17.2405   70.8129   -8.5499 N   0  0  0  0  0  0  0  0  0  0  0  0
   16.8516   70.7298   -7.2065 C   0  0  0  0  0  0  0  0  0  0  0  0
   18.9223   69.4987   -6.8841 C   0  0  0  0  0  0  0  0  0  0  0  0
   19.2795   69.5861   -8.1669 C   0  0  0  0  0  0  0  0  0  0  0  0
   18.3945   70.2943   -9.1148 C   0  0  0  0  0  0  0  0  0  0  0  0
   16.6291   71.2896   -9.1567 H   0  0  0  0  0  0  0  0  0  0  0  0
   22.0638   73.2189   -2.0962 O   0  0  0  0  0  0  0  0  0  0  0  0
   22.4698   73.0654   -0.5389 P   0  0  2  0  0  0  0  0  0  0  0  0
   23.4556   71.7815   -0.5385 O   0  0  0  0  0  0  0  0  0  0  0  0
   21.2993   72.9467    0.3938 O   0  0  0  0  0  0  0  0  0  0  0  0
   23.4374   74.3217   -0.2424 O   0  0  0  0  0  0  0  0  0  0  0  0
   22.9898   76.3152    0.9554 O   0  0  0  0  0  0  0  0  0  0  0  0
   25.7180   77.6202   -1.8593 O   0  0  0  0  0  0  0  0  0  0  0  0
   23.5837   75.7724   -2.6110 O   0  0  0  0  0  0  0  0  0  0  0  0
   26.5454   77.2190    0.8985 O   0  0  0  0  0  0  0  0  0  0  0  0
   25.1144   76.6854   -0.9649 C   0  0  2  0  0  0  0  0  0  0  0  0
   23.6567   76.4600   -1.3674 C   0  0  2  0  0  0  0  0  0  0  0  0
   25.1925   77.2655    0.4490 C   0  0  1  0  0  0  0  0  0  0  0  0
   22.9151   75.6477   -0.3048 C   0  0  1  0  0  0  0  0  0  0  0  0
   24.3269   76.4736    1.4247 C   0  0  1  0  0  0  0  0  0  0  0  0
   25.6799   77.2729   -2.7644 H   0  0  0  0  0  0  0  0  0  0  0  0
   24.0525   76.2821   -3.2898 H   0  0  0  0  0  0  0  0  0  0  0  0
   27.1070   77.7193    0.2860 H   0  0  0  0  0  0  0  0  0  0  0  0
   25.2322   77.0758    3.5030 O   0  0  0  0  0  0  0  0  0  0  0  0
   23.1617   77.8854    2.9965 O   0  0  0  0  0  0  0  0  0  0  0  0
   24.1467   77.2243    2.7039 C   0  0  0  0  0  0  0  0  0  0  0  0
  1  4  1  0
  1 24  1  0
  1  2  1  6
  1  3  2  0
 25 28  1  0
 25 24  1  0
 25 26  1  6
 25 27  2  0
  6 11  1  0
  6 12  1  0
 29 36  1  0
 29 37  1  0
  9  7  1  1
  7 13  1  0
 10  8  1  1
  8 14  1  0
  4  5  1  0
 36 28  1  1
 33 30  1  6
 30 38  1  0
 34 31  1  6
 31 39  1  0
 35 32  1  1
 32 40  1  0
 41 43  1  0
 15 19  2  0
 42 43  2  0
 16 22  2  0
 12 17  1  6
 17 19  1  0
 17 20  1  0
 18 19  1  0
 18 22  1  0
 18 23  1  0
  9 10  1  0
  9 11  1  0
 10 12  1  0
 11  5  1  6
 33 34  1  0
 33 35  1  0
 34 36  1  0
 35 37  1  0
 37 43  1  1
 20 21  2  0
 21 22  1  0
M  CHG  3   2  -1  26  -1  41  -1
M  END
>  <COMPND>  (87) 
    udp_gluA.pdb 

>  <AUTHOR>  (87) 
    GENERATED BY OPEN BABEL 3.1.1

>  <MASTER>  (87) 
        0    0    0    0    0    0    0    0   56    0   56    0

>  <minimizedAffinity>  (87) 
-7.35380

>  <CNNscore>  (87) 
0.4803607762

>  <CNNaffinity>  (87) 
4.3689322472

>  <CNN_VS>  (87) 
2.0986635685

>  <CNNaffinity_variance>  (87) 
0.0888930410

$$$$
88
     RDKit          3D

 43 45  0  0  0  0  0  0  0  0999 V2000
   21.8242   71.2623   -1.9663 P   0  0  2  0  0  0  0  0  0  0  0  0
   23.4019   71.0096   -2.2230 O   0  0  0  0  0  0  0  0  0  0  0  0
   21.2512   70.5402   -0.7822 O   0  0  0  0  0  0  0  0  0  0  0  0
   21.1396   70.9257   -3.3932 O   0  0  0  0  0  0  0  0  0  0  0  0
   20.4094   69.7200   -3.5252 C   0  0  0  0  0  0  0  0  0  0  0  0
   18.3871   70.7439   -4.3249 O   0  0  0  0  0  0  0  0  0  0  0  0
   16.9495   69.0277   -2.3301 O   0  0  0  0  0  0  0  0  0  0  0  0
   16.5502   67.6843   -4.6693 O   0  0  0  0  0  0  0  0  0  0  0  0
   18.1031   68.7270   -3.1157 C   0  0  1  0  0  0  0  0  0  0  0  0
   17.7074   68.4862   -4.5571 C   0  0  2  0  0  0  0  0  0  0  0  0
   18.9416   69.9933   -3.2229 C   0  0  1  0  0  0  0  0  0  0  0  0
   17.4897   69.9013   -5.0650 C   0  0  2  0  0  0  0  0  0  0  0  0
   16.3981   68.2334   -2.2476 H   0  0  0  0  0  0  0  0  0  0  0  0
   16.7402   66.7938   -4.3334 H   0  0  0  0  0  0  0  0  0  0  0  0
   15.8731   71.3154   -6.8991 O   0  0  0  0  0  0  0  0  0  0  0  0
   18.6854   70.3323  -10.4159 O   0  0  0  0  0  0  0  0  0  0  0  0
   17.7759   70.0308   -6.4658 N   0  0  0  0  0  0  0  0  0  0  0  0
   17.2748   70.8235   -8.6491 N   0  0  0  0  0  0  0  0  0  0  0  0
   16.8988   70.7626   -7.3008 C   0  0  0  0  0  0  0  0  0  0  0  0
   18.9146   69.4389   -6.9987 C   0  0  0  0  0  0  0  0  0  0  0  0
   19.2598   69.5057   -8.2859 C   0  0  0  0  0  0  0  0  0  0  0  0
   18.3968   70.2508   -9.2258 C   0  0  0  0  0  0  0  0  0  0  0  0
   16.6786   71.3259   -9.2503 H   0  0  0  0  0  0  0  0  0  0  0  0
   21.7231   72.8736   -1.8859 O   0  0  0  0  0  0  0  0  0  0  0  0
   20.9246   73.9344   -2.8082 P   0  0  2  0  0  0  0  0  0  0  0  0
   21.1871   75.3458   -2.0604 O   0  0  0  0  0  0  0  0  0  0  0  0
   19.4746   73.6033   -3.0130 O   0  0  0  0  0  0  0  0  0  0  0  0
   21.7886   74.0268   -4.1674 O   0  0  0  0  0  0  0  0  0  0  0  0
   21.9215   75.6475   -5.8893 O   0  0  0  0  0  0  0  0  0  0  0  0
   22.2895   72.1264   -8.0187 O   0  0  0  0  0  0  0  0  0  0  0  0
   20.3436   72.3497   -5.8513 O   0  0  0  0  0  0  0  0  0  0  0  0
   24.6271   73.7810   -7.5198 O   0  0  0  0  0  0  0  0  0  0  0  0
   22.4399   72.9894   -6.8916 C   0  0  2  0  0  0  0  0  0  0  0  0
   21.0627   73.4442   -6.4078 C   0  0  2  0  0  0  0  0  0  0  0  0
   23.2758   74.1950   -7.3273 C   0  0  1  0  0  0  0  0  0  0  0  0
   21.1891   74.5448   -5.3536 C   0  0  1  0  0  0  0  0  0  0  0  0
   23.2495   75.3005   -6.2757 C   0  0  1  0  0  0  0  0  0  0  0  0
   21.7614   71.3529   -7.7657 H   0  0  0  0  0  0  0  0  0  0  0  0
   20.2599   71.6475   -6.5148 H   0  0  0  0  0  0  0  0  0  0  0  0
   24.6578   73.0775   -8.1868 H   0  0  0  0  0  0  0  0  0  0  0  0
   23.7949   77.5486   -5.8887 O   0  0  0  0  0  0  0  0  0  0  0  0
   24.1548   76.7377   -7.9892 O   0  0  0  0  0  0  0  0  0  0  0  0
   23.7806   76.5792   -6.8369 C   0  0  0  0  0  0  0  0  0  0  0  0
  1  4  1  0
  1 24  1  0
  1  2  1  6
  1  3  2  0
 25 28  1  0
 25 24  1  0
 25 26  1  1
 25 27  2  0
  6 11  1  0
  6 12  1  0
 29 36  1  0
 29 37  1  0
  9  7  1  1
  7 13  1  0
 10  8  1  1
  8 14  1  0
  4  5  1  0
 36 28  1  1
 33 30  1  6
 30 38  1  0
 34 31  1  1
 31 39  1  0
 35 32  1  1
 32 40  1  0
 41 43  1  0
 15 19  2  0
 42 43  2  0
 16 22  2  0
 12 17  1  6
 17 19  1  0
 17 20  1  0
 18 19  1  0
 18 22  1  0
 18 23  1  0
  9 10  1  0
  9 11  1  0
 10 12  1  0
 11  5  1  6
 33 34  1  0
 33 35  1  0
 34 36  1  0
 35 37  1  0
 37 43  1  6
 20 21  2  0
 21 22  1  0
M  CHG  3   2  -1  26  -1  41  -1
M  END
>  <COMPND>  (88) 
    udp_gluA.pdb 

>  <AUTHOR>  (88) 
    GENERATED BY OPEN BABEL 3.1.1

>  <MASTER>  (88) 
        0    0    0    0    0    0    0    0   56    0   56    0

>  <minimizedAffinity>  (88) 
-7.66379

>  <CNNscore>  (88) 
0.4573140144

>  <CNNaffinity>  (88) 
4.2729201317

>  <CNN_VS>  (88) 
1.9540662766

>  <CNNaffinity_variance>  (88) 
0.5401936769

$$$$
89
     RDKit          3D

 43 45  0  0  0  0  0  0  0  0999 V2000
   17.6926   75.7949   -3.4356 P   0  0  2  0  0  0  0  0  0  0  0  0
   19.1682   76.4236   -3.6503 O   0  0  0  0  0  0  0  0  0  0  0  0
   16.5618   76.6502   -3.9273 O   0  0  0  0  0  0  0  0  0  0  0  0
   17.6559   75.4181   -1.8626 O   0  0  0  0  0  0  0  0  0  0  0  0
   17.5848   74.0524   -1.4959 C   0  0  0  0  0  0  0  0  0  0  0  0
   19.3633   72.9118   -0.3498 O   0  0  0  0  0  0  0  0  0  0  0  0
   19.0828   75.0046    1.7793 O   0  0  0  0  0  0  0  0  0  0  0  0
   21.2638   75.8618    0.3848 O   0  0  0  0  0  0  0  0  0  0  0  0
   18.9447   75.1313    0.3639 C   0  0  1  0  0  0  0  0  0  0  0  0
   20.3039   75.0858   -0.3015 C   0  0  2  0  0  0  0  0  0  0  0  0
   18.2908   73.8600   -0.1599 C   0  0  1  0  0  0  0  0  0  0  0  0
   20.6212   73.6005   -0.2693 C   0  0  2  0  0  0  0  0  0  0  0  0
   19.4985   75.8052    2.1369 H   0  0  0  0  0  0  0  0  0  0  0  0
   21.0171   76.7992    0.3353 H   0  0  0  0  0  0  0  0  0  0  0  0
   22.8310   71.8562   -0.0435 O   0  0  0  0  0  0  0  0  0  0  0  0
   23.7215   72.1053   -4.5589 O   0  0  0  0  0  0  0  0  0  0  0  0
   21.4480   73.1928   -1.3698 N   0  0  0  0  0  0  0  0  0  0  0  0
   23.2730   71.9827   -2.2924 N   0  0  0  0  0  0  0  0  0  0  0  0
   22.5339   72.3130   -1.1489 C   0  0  0  0  0  0  0  0  0  0  0  0
   21.1792   73.6615   -2.6501 C   0  0  0  0  0  0  0  0  0  0  0  0
   21.8926   73.3376   -3.7304 C   0  0  0  0  0  0  0  0  0  0  0  0
   23.0448   72.4239   -3.5858 C   0  0  0  0  0  0  0  0  0  0  0  0
   24.0353   71.3732   -2.1633 H   0  0  0  0  0  0  0  0  0  0  0  0
   17.8056   74.3507   -4.1527 O   0  0  0  0  0  0  0  0  0  0  0  0
   16.7458   73.5274   -5.0542 P   0  0  2  0  0  0  0  0  0  0  0  0
   17.4734   73.4452   -6.4979 O   0  0  0  0  0  0  0  0  0  0  0  0
   15.3698   74.1269   -5.0884 O   0  0  0  0  0  0  0  0  0  0  0  0
   16.8054   72.0203   -4.4818 O   0  0  0  0  0  0  0  0  0  0  0  0
   18.8013   70.7744   -4.2109 O   0  0  0  0  0  0  0  0  0  0  0  0
   15.9737   67.7774   -4.5120 O   0  0  0  0  0  0  0  0  0  0  0  0
   15.8503   70.1112   -6.2649 O   0  0  0  0  0  0  0  0  0  0  0  0
   17.1134   68.4535   -1.9246 O   0  0  0  0  0  0  0  0  0  0  0  0
   16.4713   69.0693   -4.1637 C   0  0  2  0  0  0  0  0  0  0  0  0
   16.9520   69.7894   -5.4238 C   0  0  2  0  0  0  0  0  0  0  0  0
   17.6310   68.8808   -3.1832 C   0  0  1  0  0  0  0  0  0  0  0  0
   17.6991   71.0754   -5.0677 C   0  0  1  0  0  0  0  0  0  0  0  0
   18.4032   70.1807   -2.9771 C   0  0  1  0  0  0  0  0  0  0  0  0
   15.2357   67.8720   -5.1347 H   0  0  0  0  0  0  0  0  0  0  0  0
   15.3716   69.2998   -6.4946 H   0  0  0  0  0  0  0  0  0  0  0  0
   16.6195   67.6270   -2.0419 H   0  0  0  0  0  0  0  0  0  0  0  0
   19.5074   69.5882   -0.9944 O   0  0  0  0  0  0  0  0  0  0  0  0
   20.8039   69.9939   -2.8258 O   0  0  0  0  0  0  0  0  0  0  0  0
   19.7063   69.9211   -2.2939 C   0  0  0  0  0  0  0  0  0  0  0  0
  1  4  1  0
  1 24  1  0
  1  2  1  1
  1  3  2  0
 25 28  1  0
 25 24  1  0
 25 26  1  6
 25 27  2  0
  6 11  1  0
  6 12  1  0
 29 36  1  0
 29 37  1  0
  9  7  1  1
  7 13  1  0
 10  8  1  1
  8 14  1  0
  4  5  1  0
 36 28  1  1
 33 30  1  6
 30 38  1  0
 34 31  1  6
 31 39  1  0
 35 32  1  1
 32 40  1  0
 41 43  1  0
 15 19  2  0
 42 43  2  0
 16 22  2  0
 12 17  1  6
 17 19  1  0
 17 20  1  0
 18 19  1  0
 18 22  1  0
 18 23  1  0
  9 10  1  0
  9 11  1  0
 10 12  1  0
 11  5  1  6
 33 34  1  0
 33 35  1  0
 34 36  1  0
 35 37  1  0
 37 43  1  1
 20 21  2  0
 21 22  1  0
M  CHG  3   2  -1  26  -1  41  -1
M  END
>  <COMPND>  (89) 
    udp_gluA.pdb 

>  <AUTHOR>  (89) 
    GENERATED BY OPEN BABEL 3.1.1

>  <MASTER>  (89) 
        0    0    0    0    0    0    0    0   56    0   56    0

>  <minimizedAffinity>  (89) 
-6.31139

>  <CNNscore>  (89) 
0.4520623982

>  <CNNaffinity>  (89) 
3.9451167583

>  <CNN_VS>  (89) 
1.7834389210

>  <CNNaffinity_variance>  (89) 
0.7602471113

$$$$
90
     RDKit          3D

 43 45  0  0  0  0  0  0  0  0999 V2000
   17.6886   72.9977   -7.4712 P   0  0  2  0  0  0  0  0  0  0  0  0
   18.8615   74.0745   -7.1818 O   0  0  0  0  0  0  0  0  0  0  0  0
   17.4984   72.6410   -8.9163 O   0  0  0  0  0  0  0  0  0  0  0  0
   16.3955   73.6220   -6.7255 O   0  0  0  0  0  0  0  0  0  0  0  0
   15.4493   72.7354   -6.1569 C   0  0  0  0  0  0  0  0  0  0  0  0
   14.6240   72.1432   -3.9784 O   0  0  0  0  0  0  0  0  0  0  0  0
   15.5910   74.8370   -3.0842 O   0  0  0  0  0  0  0  0  0  0  0  0
   17.5583   73.1718   -2.1936 O   0  0  0  0  0  0  0  0  0  0  0  0
   16.1668   73.9396   -4.0338 C   0  0  1  0  0  0  0  0  0  0  0  0
   16.8133   72.7691   -3.3238 C   0  0  2  0  0  0  0  0  0  0  0  0
   15.0312   73.2651   -4.7913 C   0  0  1  0  0  0  0  0  0  0  0  0
   15.6092   71.9183   -2.9576 C   0  0  2  0  0  0  0  0  0  0  0  0
   16.2974   75.2800   -2.5879 H   0  0  0  0  0  0  0  0  0  0  0  0
   18.3135   73.7103   -2.4793 H   0  0  0  0  0  0  0  0  0  0  0  0
   14.2700   70.0393   -1.3289 O   0  0  0  0  0  0  0  0  0  0  0  0
   16.8924   66.5712   -2.8583 O   0  0  0  0  0  0  0  0  0  0  0  0
   15.9216   70.5179   -2.9106 N   0  0  0  0  0  0  0  0  0  0  0  0
   15.5780   68.3140   -2.0914 N   0  0  0  0  0  0  0  0  0  0  0  0
   15.1882   69.6593   -2.0579 C   0  0  0  0  0  0  0  0  0  0  0  0
   16.9424   70.0080   -3.7036 C   0  0  0  0  0  0  0  0  0  0  0  0
   17.3024   68.7232   -3.7248 C   0  0  0  0  0  0  0  0  0  0  0  0
   16.5869   67.7599   -2.8626 C   0  0  0  0  0  0  0  0  0  0  0  0
   15.0833   67.6973   -1.5047 H   0  0  0  0  0  0  0  0  0  0  0  0
   18.0930   71.7559   -6.5187 O   0  0  0  0  0  0  0  0  0  0  0  0
   19.1673   70.5657   -6.7254 P   0  0  2  0  0  0  0  0  0  0  0  0
   20.0565   71.0828   -7.9753 O   0  0  0  0  0  0  0  0  0  0  0  0
   18.5538   69.2096   -6.9220 O   0  0  0  0  0  0  0  0  0  0  0  0
   20.1515   70.6769   -5.4520 O   0  0  0  0  0  0  0  0  0  0  0  0
   20.0121   71.4695   -3.2245 O   0  0  0  0  0  0  0  0  0  0  0  0
   23.6645   72.9799   -4.4273 O   0  0  0  0  0  0  0  0  0  0  0  0
   21.3650   73.0564   -6.2276 O   0  0  0  0  0  0  0  0  0  0  0  0
   23.5493   70.6768   -2.6572 O   0  0  0  0  0  0  0  0  0  0  0  0
   22.5891   72.0416   -4.3951 C   0  0  2  0  0  0  0  0  0  0  0  0
   21.2985   72.7267   -4.8450 C   0  0  2  0  0  0  0  0  0  0  0  0
   22.4486   71.5324   -2.9588 C   0  0  1  0  0  0  0  0  0  0  0  0
   20.0876   71.8236   -4.6060 C   0  0  1  0  0  0  0  0  0  0  0  0
   21.1542   70.7467   -2.7704 C   0  0  1  0  0  0  0  0  0  0  0  0
   23.7726   73.3173   -5.3305 H   0  0  0  0  0  0  0  0  0  0  0  0
   22.1312   73.6291   -6.3864 H   0  0  0  0  0  0  0  0  0  0  0  0
   24.3795   71.1648   -2.7734 H   0  0  0  0  0  0  0  0  0  0  0  0
   21.4714   71.4945   -0.5700 O   0  0  0  0  0  0  0  0  0  0  0  0
   20.1769   69.6403   -0.8619 O   0  0  0  0  0  0  0  0  0  0  0  0
   20.8653   70.5404   -1.3191 C   0  0  0  0  0  0  0  0  0  0  0  0
  1  4  1  0
  1 24  1  0
  1  2  1  6
  1  3  2  0
 25 28  1  0
 25 24  1  0
 25 26  1  6
 25 27  2  0
  6 11  1  0
  6 12  1  0
 29 36  1  0
 29 37  1  0
  9  7  1  1
  7 13  1  0
 10  8  1  1
  8 14  1  0
  4  5  1  0
 36 28  1  6
 33 30  1  1
 30 38  1  0
 34 31  1  6
 31 39  1  0
 35 32  1  6
 32 40  1  0
 41 43  1  0
 15 19  2  0
 42 43  2  0
 16 22  2  0
 12 17  1  6
 17 19  1  0
 17 20  1  0
 18 19  1  0
 18 22  1  0
 18 23  1  0
  9 10  1  0
  9 11  1  0
 10 12  1  0
 11  5  1  6
 33 34  1  0
 33 35  1  0
 34 36  1  0
 35 37  1  0
 37 43  1  1
 20 21  2  0
 21 22  1  0
M  CHG  3   2  -1  26  -1  41  -1
M  END
>  <COMPND>  (90) 
    udp_gluA.pdb 

>  <AUTHOR>  (90) 
    GENERATED BY OPEN BABEL 3.1.1

>  <MASTER>  (90) 
        0    0    0    0    0    0    0    0   56    0   56    0

>  <minimizedAffinity>  (90) 
-6.35605

>  <CNNscore>  (90) 
0.4392456114

>  <CNNaffinity>  (90) 
4.1920714378

>  <CNN_VS>  (90) 
1.8413490057

>  <CNNaffinity_variance>  (90) 
0.2420992851

$$$$
91
     RDKit          3D

 43 45  0  0  0  0  0  0  0  0999 V2000
   21.0799   71.1775   -1.3806 P   0  0  2  0  0  0  0  0  0  0  0  0
   22.4592   70.6564   -0.7136 O   0  0  0  0  0  0  0  0  0  0  0  0
   20.2897   72.1340   -0.5365 O   0  0  0  0  0  0  0  0  0  0  0  0
   20.3144   69.8162   -1.8036 O   0  0  0  0  0  0  0  0  0  0  0  0
   19.7331   69.7400   -3.0924 C   0  0  0  0  0  0  0  0  0  0  0  0
   17.7069   70.5773   -4.0778 O   0  0  0  0  0  0  0  0  0  0  0  0
   16.2692   68.5732   -2.3724 O   0  0  0  0  0  0  0  0  0  0  0  0
   16.3111   67.3578   -4.8131 O   0  0  0  0  0  0  0  0  0  0  0  0
   17.5341   68.4623   -3.0253 C   0  0  1  0  0  0  0  0  0  0  0  0
   17.3404   68.2778   -4.5155 C   0  0  2  0  0  0  0  0  0  0  0  0
   18.2179   69.8211   -2.9587 C   0  0  1  0  0  0  0  0  0  0  0  0
   17.0113   69.6901   -4.9680 C   0  0  2  0  0  0  0  0  0  0  0  0
   15.8135   67.7170   -2.4021 H   0  0  0  0  0  0  0  0  0  0  0  0
   16.5686   66.4739   -4.5057 H   0  0  0  0  0  0  0  0  0  0  0  0
   15.5967   71.2949   -6.8120 O   0  0  0  0  0  0  0  0  0  0  0  0
   18.7495   70.6113  -10.1039 O   0  0  0  0  0  0  0  0  0  0  0  0
   17.4398   69.9483   -6.3136 N   0  0  0  0  0  0  0  0  0  0  0  0
   17.1678   70.9520   -8.4501 N   0  0  0  0  0  0  0  0  0  0  0  0
   16.6557   70.7685   -7.1589 C   0  0  0  0  0  0  0  0  0  0  0  0
   18.6244   69.3937   -6.7827 C   0  0  0  0  0  0  0  0  0  0  0  0
   19.0997   69.5778   -8.0160 C   0  0  0  0  0  0  0  0  0  0  0  0
   18.3404   70.4210   -8.9625 C   0  0  0  0  0  0  0  0  0  0  0  0
   16.6383   71.5176   -9.0576 H   0  0  0  0  0  0  0  0  0  0  0  0
   21.5671   71.7767   -2.8005 O   0  0  0  0  0  0  0  0  0  0  0  0
   22.9106   72.5774   -3.2099 P   0  0  2  0  0  0  0  0  0  0  0  0
   23.8810   71.4094   -3.7705 O   0  0  0  0  0  0  0  0  0  0  0  0
   23.5038   73.3937   -2.0983 O   0  0  0  0  0  0  0  0  0  0  0  0
   22.4983   73.4270   -4.5178 O   0  0  0  0  0  0  0  0  0  0  0  0
   20.6725   72.7439   -5.8628 O   0  0  0  0  0  0  0  0  0  0  0  0
   22.6937   75.2853   -8.4170 O   0  0  0  0  0  0  0  0  0  0  0  0
   24.1607   73.3892   -6.7474 O   0  0  0  0  0  0  0  0  0  0  0  0
   20.2433   76.1632   -7.1225 O   0  0  0  0  0  0  0  0  0  0  0  0
   22.2313   74.8023   -7.1557 C   0  0  2  0  0  0  0  0  0  0  0  0
   22.7496   73.3817   -6.9304 C   0  0  2  0  0  0  0  0  0  0  0  0
   20.7011   74.8134   -7.1773 C   0  0  1  0  0  0  0  0  0  0  0  0
   22.0917   72.7473   -5.7042 C   0  0  1  0  0  0  0  0  0  0  0  0
   20.1217   74.0532   -5.9878 C   0  0  1  0  0  0  0  0  0  0  0  0
   23.6639   75.2872   -8.4267 H   0  0  0  0  0  0  0  0  0  0  0  0
   24.5846   73.7907   -7.5217 H   0  0  0  0  0  0  0  0  0  0  0  0
   20.6052   76.6581   -7.8742 H   0  0  0  0  0  0  0  0  0  0  0  0
   18.3598   73.7599   -7.5081 O   0  0  0  0  0  0  0  0  0  0  0  0
   17.8545   73.6134   -5.2894 O   0  0  0  0  0  0  0  0  0  0  0  0
   18.6651   73.7868   -6.1871 C   0  0  0  0  0  0  0  0  0  0  0  0
  1  4  1  0
  1 24  1  0
  1  2  1  1
  1  3  2  0
 25 28  1  0
 25 24  1  0
 25 26  1  6
 25 27  2  0
  6 11  1  0
  6 12  1  0
 29 36  1  0
 29 37  1  0
  9  7  1  1
  7 13  1  0
 10  8  1  1
  8 14  1  0
  4  5  1  0
 36 28  1  1
 33 30  1  6
 30 38  1  0
 34 31  1  1
 31 39  1  0
 35 32  1  1
 32 40  1  0
 41 43  1  0
 15 19  2  0
 42 43  2  0
 16 22  2  0
 12 17  1  6
 17 19  1  0
 17 20  1  0
 18 19  1  0
 18 22  1  0
 18 23  1  0
  9 10  1  0
  9 11  1  0
 10 12  1  0
 11  5  1  6
 33 34  1  0
 33 35  1  0
 34 36  1  0
 35 37  1  0
 37 43  1  6
 20 21  2  0
 21 22  1  0
M  CHG  3   2  -1  26  -1  41  -1
M  END
>  <COMPND>  (91) 
    udp_gluA.pdb 

>  <AUTHOR>  (91) 
    GENERATED BY OPEN BABEL 3.1.1

>  <MASTER>  (91) 
        0    0    0    0    0    0    0    0   56    0   56    0

>  <minimizedAffinity>  (91) 
-7.57029

>  <CNNscore>  (91) 
0.4238527417

>  <CNNaffinity>  (91) 
4.2094826698

>  <CNN_VS>  (91) 
1.7842007875

>  <CNNaffinity_variance>  (91) 
0.7920538187

$$$$
92
     RDKit          3D

 43 45  0  0  0  0  0  0  0  0999 V2000
   18.0451   69.5644   -2.0403 P   0  0  2  0  0  0  0  0  0  0  0  0
   16.9982   68.3596   -1.7730 O   0  0  0  0  0  0  0  0  0  0  0  0
   19.4713   69.2533   -1.6924 O   0  0  0  0  0  0  0  0  0  0  0  0
   17.3919   70.8257   -1.2653 O   0  0  0  0  0  0  0  0  0  0  0  0
   17.7566   72.1319   -1.6721 C   0  0  0  0  0  0  0  0  0  0  0  0
   19.5103   72.3237   -0.0395 O   0  0  0  0  0  0  0  0  0  0  0  0
   18.4852   75.0964    0.4630 O   0  0  0  0  0  0  0  0  0  0  0  0
   20.6570   75.5426   -1.1245 O   0  0  0  0  0  0  0  0  0  0  0  0
   18.5587   74.3686   -0.7631 C   0  0  1  0  0  0  0  0  0  0  0  0
   19.9912   74.3034   -1.2490 C   0  0  2  0  0  0  0  0  0  0  0  0
   18.2582   72.9069   -0.4605 C   0  0  1  0  0  0  0  0  0  0  0  0
   20.5806   73.2300   -0.3500 C   0  0  2  0  0  0  0  0  0  0  0  0
   18.6737   76.0334    0.2949 H   0  0  0  0  0  0  0  0  0  0  0  0
   20.2450   76.1920   -1.7166 H   0  0  0  0  0  0  0  0  0  0  0  0
   22.9703   72.4383    0.9303 O   0  0  0  0  0  0  0  0  0  0  0  0
   24.5736   70.4363   -2.8993 O   0  0  0  0  0  0  0  0  0  0  0  0
   21.6394   72.5008   -0.9889 N   0  0  0  0  0  0  0  0  0  0  0  0
   23.7670   71.4428   -0.9786 N   0  0  0  0  0  0  0  0  0  0  0  0
   22.7985   72.1521   -0.2561 C   0  0  0  0  0  0  0  0  0  0  0  0
   21.5232   72.1374   -2.3251 C   0  0  0  0  0  0  0  0  0  0  0  0
   22.4548   71.4613   -3.0002 C   0  0  0  0  0  0  0  0  0  0  0  0
   23.6970   71.0593   -2.3081 C   0  0  0  0  0  0  0  0  0  0  0  0
   24.5838   71.1907   -0.4901 H   0  0  0  0  0  0  0  0  0  0  0  0
   17.7946   69.9245   -3.5960 O   0  0  0  0  0  0  0  0  0  0  0  0
   16.4946   69.7239   -4.5359 P   0  0  2  0  0  0  0  0  0  0  0  0
   15.4909   70.8900   -4.0328 O   0  0  0  0  0  0  0  0  0  0  0  0
   15.9092   68.3421   -4.4906 O   0  0  0  0  0  0  0  0  0  0  0  0
   16.9713   70.2013   -6.0013 O   0  0  0  0  0  0  0  0  0  0  0  0
   17.9758   72.3399   -5.8389 O   0  0  0  0  0  0  0  0  0  0  0  0
   18.1395   71.6410   -9.9074 O   0  0  0  0  0  0  0  0  0  0  0  0
   15.7449   70.9530   -8.3818 O   0  0  0  0  0  0  0  0  0  0  0  0
   20.5389   71.3885   -8.2858 O   0  0  0  0  0  0  0  0  0  0  0  0
   18.1434   71.2900   -8.5236 C   0  0  2  0  0  0  0  0  0  0  0  0
   16.8275   71.7287   -7.8807 C   0  0  2  0  0  0  0  0  0  0  0  0
   19.3239   72.0014   -7.8586 C   0  0  1  0  0  0  0  0  0  0  0  0
   16.8851   71.5792   -6.3598 C   0  0  1  0  0  0  0  0  0  0  0  0
   19.2419   71.9138   -6.3374 C   0  0  1  0  0  0  0  0  0  0  0  0
   17.3975   71.2005  -10.3508 H   0  0  0  0  0  0  0  0  0  0  0  0
   15.7026   71.0430   -9.3464 H   0  0  0  0  0  0  0  0  0  0  0  0
   20.6034   71.4373   -9.2524 H   0  0  0  0  0  0  0  0  0  0  0  0
   21.4696   72.5956   -6.0656 O   0  0  0  0  0  0  0  0  0  0  0  0
   19.8748   73.7837   -4.9502 O   0  0  0  0  0  0  0  0  0  0  0  0
   20.1937   72.8722   -5.6988 C   0  0  0  0  0  0  0  0  0  0  0  0
  1  4  1  0
  1 24  1  0
  1  2  1  1
  1  3  2  0
 25 28  1  0
 25 24  1  0
 25 26  1  1
 25 27  2  0
  6 11  1  0
  6 12  1  0
 29 36  1  0
 29 37  1  0
  9  7  1  1
  7 13  1  0
 10  8  1  1
  8 14  1  0
  4  5  1  0
 36 28  1  6
 33 30  1  6
 30 38  1  0
 34 31  1  6
 31 39  1  0
 35 32  1  6
 32 40  1  0
 41 43  1  0
 15 19  2  0
 42 43  2  0
 16 22  2  0
 12 17  1  6
 17 19  1  0
 17 20  1  0
 18 19  1  0
 18 22  1  0
 18 23  1  0
  9 10  1  0
  9 11  1  0
 10 12  1  0
 11  5  1  6
 33 34  1  0
 33 35  1  0
 34 36  1  0
 35 37  1  0
 37 43  1  1
 20 21  2  0
 21 22  1  0
M  CHG  3   2  -1  26  -1  41  -1
M  END
>  <COMPND>  (92) 
    udp_gluA.pdb 

>  <AUTHOR>  (92) 
    GENERATED BY OPEN BABEL 3.1.1

>  <MASTER>  (92) 
        0    0    0    0    0    0    0    0   56    0   56    0

>  <minimizedAffinity>  (92) 
-7.66542

>  <CNNscore>  (92) 
0.4226573706

>  <CNNaffinity>  (92) 
4.1650958061

>  <CNN_VS>  (92) 
1.7604084015

>  <CNNaffinity_variance>  (92) 
0.3628884852

$$$$
93
     RDKit          3D

 43 45  0  0  0  0  0  0  0  0999 V2000
   21.2547   71.3427   -1.6888 P   0  0  2  0  0  0  0  0  0  0  0  0
   22.6828   70.9596   -1.0310 O   0  0  0  0  0  0  0  0  0  0  0  0
   20.4387   72.3266   -0.9028 O   0  0  0  0  0  0  0  0  0  0  0  0
   20.5556   69.9092   -1.9615 O   0  0  0  0  0  0  0  0  0  0  0  0
   19.9180   69.6940   -3.2071 C   0  0  0  0  0  0  0  0  0  0  0  0
   17.8978   70.5889   -4.1535 O   0  0  0  0  0  0  0  0  0  0  0  0
   16.4332   68.7059   -2.3366 O   0  0  0  0  0  0  0  0  0  0  0  0
   16.3394   67.4130   -4.7357 O   0  0  0  0  0  0  0  0  0  0  0  0
   17.6692   68.5182   -3.0262 C   0  0  1  0  0  0  0  0  0  0  0  0
   17.4172   68.2952   -4.5024 C   0  0  2  0  0  0  0  0  0  0  0  0
   18.4131   69.8466   -3.0271 C   0  0  1  0  0  0  0  0  0  0  0  0
   17.1345   69.7058   -4.9906 C   0  0  2  0  0  0  0  0  0  0  0  0
   15.9399   67.8704   -2.3231 H   0  0  0  0  0  0  0  0  0  0  0  0
   16.5685   66.5288   -4.4076 H   0  0  0  0  0  0  0  0  0  0  0  0
   15.7283   71.3113   -6.8404 O   0  0  0  0  0  0  0  0  0  0  0  0
   18.7358   70.3852  -10.2081 O   0  0  0  0  0  0  0  0  0  0  0  0
   17.5279   69.9018   -6.3572 N   0  0  0  0  0  0  0  0  0  0  0  0
   17.2270   70.8477   -8.5162 N   0  0  0  0  0  0  0  0  0  0  0  0
   16.7515   70.7281   -7.2037 C   0  0  0  0  0  0  0  0  0  0  0  0
   18.6711   69.2810   -6.8457 C   0  0  0  0  0  0  0  0  0  0  0  0
   19.1119   69.4046   -8.0992 C   0  0  0  0  0  0  0  0  0  0  0  0
   18.3578   70.2496   -9.0483 C   0  0  0  0  0  0  0  0  0  0  0  0
   16.7020   71.4163   -9.1247 H   0  0  0  0  0  0  0  0  0  0  0  0
   21.6600   71.8376   -3.1732 O   0  0  0  0  0  0  0  0  0  0  0  0
   22.5769   73.0744   -3.6663 P   0  0  2  0  0  0  0  0  0  0  0  0
   23.6036   72.3813   -4.7083 O   0  0  0  0  0  0  0  0  0  0  0  0
   23.2423   73.8300   -2.5526 O   0  0  0  0  0  0  0  0  0  0  0  0
   21.5996   73.9659   -4.5897 O   0  0  0  0  0  0  0  0  0  0  0  0
   19.6581   75.2522   -4.1596 O   0  0  0  0  0  0  0  0  0  0  0  0
   18.7456   73.5481   -7.8108 O   0  0  0  0  0  0  0  0  0  0  0  0
   20.0301   71.9658   -5.7177 O   0  0  0  0  0  0  0  0  0  0  0  0
   19.5318   76.3428   -7.6606 O   0  0  0  0  0  0  0  0  0  0  0  0
   19.5982   74.0921   -6.8032 C   0  0  2  0  0  0  0  0  0  0  0  0
   19.4749   73.2617   -5.5254 C   0  0  2  0  0  0  0  0  0  0  0  0
   19.1623   75.5359   -6.5439 C   0  0  1  0  0  0  0  0  0  0  0  0
   20.1921   73.9428   -4.3590 C   0  0  1  0  0  0  0  0  0  0  0  0
   19.8264   76.1021   -5.2921 C   0  0  1  0  0  0  0  0  0  0  0  0
   19.0038   72.6306   -7.9923 H   0  0  0  0  0  0  0  0  0  0  0  0
   19.5798   71.5280   -6.4565 H   0  0  0  0  0  0  0  0  0  0  0  0
   19.1157   75.9930   -8.4640 H   0  0  0  0  0  0  0  0  0  0  0  0
   18.9144   77.3528   -3.5299 O   0  0  0  0  0  0  0  0  0  0  0  0
   18.8707   78.2952   -5.6057 O   0  0  0  0  0  0  0  0  0  0  0  0
   19.1585   77.3680   -4.8637 C   0  0  0  0  0  0  0  0  0  0  0  0
  1  4  1  0
  1 24  1  0
  1  2  1  1
  1  3  2  0
 25 28  1  0
 25 24  1  0
 25 26  1  6
 25 27  2  0
  6 11  1  0
  6 12  1  0
 29 36  1  0
 29 37  1  0
  9  7  1  1
  7 13  1  0
 10  8  1  1
  8 14  1  0
  4  5  1  0
 36 28  1  6
 33 30  1  6
 30 38  1  0
 34 31  1  6
 31 39  1  0
 35 32  1  6
 32 40  1  0
 41 43  1  0
 15 19  2  0
 42 43  2  0
 16 22  2  0
 12 17  1  6
 17 19  1  0
 17 20  1  0
 18 19  1  0
 18 22  1  0
 18 23  1  0
  9 10  1  0
  9 11  1  0
 10 12  1  0
 11  5  1  6
 33 34  1  0
 33 35  1  0
 34 36  1  0
 35 37  1  0
 37 43  1  1
 20 21  2  0
 21 22  1  0
M  CHG  3   2  -1  26  -1  41  -1
M  END
>  <COMPND>  (93) 
    udp_gluA.pdb 

>  <AUTHOR>  (93) 
    GENERATED BY OPEN BABEL 3.1.1

>  <MASTER>  (93) 
        0    0    0    0    0    0    0    0   56    0   56    0

>  <minimizedAffinity>  (93) 
-7.14043

>  <CNNscore>  (93) 
0.4155615270

>  <CNNaffinity>  (93) 
4.2366991043

>  <CNN_VS>  (93) 
1.7606091499

>  <CNNaffinity_variance>  (93) 
0.4300159812

$$$$
94
     RDKit          3D

 43 45  0  0  0  0  0  0  0  0999 V2000
   17.2290   68.9818   -4.1409 P   0  0  2  0  0  0  0  0  0  0  0  0
   16.7841   67.4342   -4.3017 O   0  0  0  0  0  0  0  0  0  0  0  0
   16.0953   69.9581   -4.0247 O   0  0  0  0  0  0  0  0  0  0  0  0
   18.2421   69.2256   -5.3787 O   0  0  0  0  0  0  0  0  0  0  0  0
   18.1759   70.4570   -6.0742 C   0  0  0  0  0  0  0  0  0  0  0  0
   16.1807   70.5645   -7.4104 O   0  0  0  0  0  0  0  0  0  0  0  0
   17.9948   70.4471   -9.7951 O   0  0  0  0  0  0  0  0  0  0  0  0
   17.3825   73.1000   -9.6423 O   0  0  0  0  0  0  0  0  0  0  0  0
   18.1960   71.0925   -8.5375 C   0  0  1  0  0  0  0  0  0  0  0  0
   17.3492   72.3445   -8.4495 C   0  0  2  0  0  0  0  0  0  0  0  0
   17.5812   70.2153   -7.4556 C   0  0  1  0  0  0  0  0  0  0  0  0
   15.9720   71.7738   -8.1570 C   0  0  2  0  0  0  0  0  0  0  0  0
   18.3794   70.9890  -10.5022 H   0  0  0  0  0  0  0  0  0  0  0  0
   18.2799   73.4414   -9.7838 H   0  0  0  0  0  0  0  0  0  0  0  0
   14.1665   73.6492   -9.2521 O   0  0  0  0  0  0  0  0  0  0  0  0
   12.9157   75.1554   -5.0794 O   0  0  0  0  0  0  0  0  0  0  0  0
   15.1619   72.6685   -7.3797 N   0  0  0  0  0  0  0  0  0  0  0  0
   13.5460   74.3983   -7.1729 N   0  0  0  0  0  0  0  0  0  0  0  0
   14.2873   73.5723   -8.0280 C   0  0  0  0  0  0  0  0  0  0  0  0
   15.2370   72.6441   -5.9924 C   0  0  0  0  0  0  0  0  0  0  0  0
   14.5240   73.4375   -5.1906 C   0  0  0  0  0  0  0  0  0  0  0  0
   13.5868   74.4112   -5.7880 C   0  0  0  0  0  0  0  0  0  0  0  0
   12.9316   75.0373   -7.6012 H   0  0  0  0  0  0  0  0  0  0  0  0
   18.2186   68.9441   -2.8634 O   0  0  0  0  0  0  0  0  0  0  0  0
   18.8845   70.1384   -2.0009 P   0  0  2  0  0  0  0  0  0  0  0  0
   19.8301   69.3518   -0.9485 O   0  0  0  0  0  0  0  0  0  0  0  0
   17.8908   71.0670   -1.3652 O   0  0  0  0  0  0  0  0  0  0  0  0
   19.9133   70.8530   -3.0175 O   0  0  0  0  0  0  0  0  0  0  0  0
   21.4539   71.9996   -1.6315 O   0  0  0  0  0  0  0  0  0  0  0  0
   23.0309   72.6850   -5.3880 O   0  0  0  0  0  0  0  0  0  0  0  0
   20.1489   72.8499   -4.9392 O   0  0  0  0  0  0  0  0  0  0  0  0
   24.2703   70.7405   -3.6177 O   0  0  0  0  0  0  0  0  0  0  0  0
   22.3326   71.9516   -4.3818 C   0  0  2  0  0  0  0  0  0  0  0  0
   21.1238   72.7582   -3.9067 C   0  0  2  0  0  0  0  0  0  0  0  0
   23.2981   71.7056   -3.2202 C   0  0  1  0  0  0  0  0  0  0  0  0
   20.4858   72.1138   -2.6752 C   0  0  1  0  0  0  0  0  0  0  0  0
   22.5656   71.1812   -1.9885 C   0  0  1  0  0  0  0  0  0  0  0  0
   22.4370   72.8532   -6.1365 H   0  0  0  0  0  0  0  0  0  0  0  0
   20.5470   73.2576   -5.7239 H   0  0  0  0  0  0  0  0  0  0  0  0
   24.7436   71.0620   -4.4009 H   0  0  0  0  0  0  0  0  0  0  0  0
   24.4422   70.3466   -0.8557 O   0  0  0  0  0  0  0  0  0  0  0  0
   23.2820   72.0304    0.1532 O   0  0  0  0  0  0  0  0  0  0  0  0
   23.4398   71.2567   -0.7792 C   0  0  0  0  0  0  0  0  0  0  0  0
  1  4  1  0
  1 24  1  0
  1  2  1  6
  1  3  2  0
 25 28  1  0
 25 24  1  0
 25 26  1  1
 25 27  2  0
  6 11  1  0
  6 12  1  0
 29 36  1  0
 29 37  1  0
  9  7  1  6
  7 13  1  0
 10  8  1  6
  8 14  1  0
  4  5  1  0
 36 28  1  6
 33 30  1  6
 30 38  1  0
 34 31  1  6
 31 39  1  0
 35 32  1  6
 32 40  1  0
 41 43  1  0
 15 19  2  0
 42 43  2  0
 16 22  2  0
 12 17  1  1
 17 19  1  0
 17 20  1  0
 18 19  1  0
 18 22  1  0
 18 23  1  0
  9 10  1  0
  9 11  1  0
 10 12  1  0
 11  5  1  1
 33 34  1  0
 33 35  1  0
 34 36  1  0
 35 37  1  0
 37 43  1  1
 20 21  2  0
 21 22  1  0
M  CHG  3   2  -1  26  -1  41  -1
M  END
>  <COMPND>  (94) 
    udp_gluA.pdb 

>  <AUTHOR>  (94) 
    GENERATED BY OPEN BABEL 3.1.1

>  <MASTER>  (94) 
        0    0    0    0    0    0    0    0   56    0   56    0

>  <minimizedAffinity>  (94) 
-8.27626

>  <CNNscore>  (94) 
0.4065433741

>  <CNNaffinity>  (94) 
4.2153825760

>  <CNN_VS>  (94) 
1.7137358189

>  <CNNaffinity_variance>  (94) 
0.1698376238

$$$$
95
     RDKit          3D

 43 45  0  0  0  0  0  0  0  0999 V2000
   17.1738   73.9198   -3.0226 P   0  0  2  0  0  0  0  0  0  0  0  0
   15.5760   73.8128   -3.2564 O   0  0  0  0  0  0  0  0  0  0  0  0
   17.6265   75.1517   -2.2950 O   0  0  0  0  0  0  0  0  0  0  0  0
   17.7977   73.7074   -4.5003 O   0  0  0  0  0  0  0  0  0  0  0  0
   17.1453   74.3104   -5.6027 C   0  0  0  0  0  0  0  0  0  0  0  0
   18.3545   72.4633   -6.5534 O   0  0  0  0  0  0  0  0  0  0  0  0
   17.1357   73.2563   -9.1758 O   0  0  0  0  0  0  0  0  0  0  0  0
   15.5874   71.1450   -8.4133 O   0  0  0  0  0  0  0  0  0  0  0  0
   16.5694   73.3010   -7.8659 C   0  0  1  0  0  0  0  0  0  0  0  0
   16.2136   71.9048   -7.4008 C   0  0  2  0  0  0  0  0  0  0  0  0
   17.6719   73.6904   -6.8906 C   0  0  1  0  0  0  0  0  0  0  0  0
   17.5711   71.3480   -7.0069 C   0  0  2  0  0  0  0  0  0  0  0  0
   16.4500   73.0095   -9.8166 H   0  0  0  0  0  0  0  0  0  0  0  0
   14.7272   71.5397   -8.6283 H   0  0  0  0  0  0  0  0  0  0  0  0
   19.3529   69.1826   -6.6713 O   0  0  0  0  0  0  0  0  0  0  0  0
   17.1291   67.6976   -2.9171 O   0  0  0  0  0  0  0  0  0  0  0  0
   17.4810   70.3804   -5.9504 N   0  0  0  0  0  0  0  0  0  0  0  0
   18.2430   68.4445   -4.8024 N   0  0  0  0  0  0  0  0  0  0  0  0
   18.4266   69.3308   -5.8719 C   0  0  0  0  0  0  0  0  0  0  0  0
   16.4663   70.4772   -5.0059 C   0  0  0  0  0  0  0  0  0  0  0  0
   16.3043   69.6249   -3.9920 C   0  0  0  0  0  0  0  0  0  0  0  0
   17.2492   68.4993   -3.8386 C   0  0  0  0  0  0  0  0  0  0  0  0
   18.8879   67.7042   -4.7282 H   0  0  0  0  0  0  0  0  0  0  0  0
   17.5253   72.5297   -2.2765 O   0  0  0  0  0  0  0  0  0  0  0  0
   18.6985   72.1542   -1.2295 P   0  0  2  0  0  0  0  0  0  0  0  0
   18.5764   70.5453   -1.0985 O   0  0  0  0  0  0  0  0  0  0  0  0
   18.6162   72.8890    0.0771 O   0  0  0  0  0  0  0  0  0  0  0  0
   20.0686   72.3933   -2.0469 O   0  0  0  0  0  0  0  0  0  0  0  0
   22.2830   72.1338   -1.2481 O   0  0  0  0  0  0  0  0  0  0  0  0
   22.7745   75.0162   -4.1667 O   0  0  0  0  0  0  0  0  0  0  0  0
   20.4920   75.1258   -2.3466 O   0  0  0  0  0  0  0  0  0  0  0  0
   23.5984   72.2742   -4.6704 O   0  0  0  0  0  0  0  0  0  0  0  0
   22.1829   73.8715   -3.5522 C   0  0  2  0  0  0  0  0  0  0  0  0
   21.6107   74.2608   -2.1889 C   0  0  2  0  0  0  0  0  0  0  0  0
   23.2706   72.8074   -3.3887 C   0  0  1  0  0  0  0  0  0  0  0  0
   21.1759   73.0222   -1.4042 C   0  0  1  0  0  0  0  0  0  0  0  0
   22.8026   71.6659   -2.4907 C   0  0  1  0  0  0  0  0  0  0  0  0
   22.1019   75.7060   -4.2807 H   0  0  0  0  0  0  0  0  0  0  0  0
   20.7607   75.9138   -2.8440 H   0  0  0  0  0  0  0  0  0  0  0  0
   23.8976   72.9907   -5.2518 H   0  0  0  0  0  0  0  0  0  0  0  0
   24.5958   70.3081   -3.1560 O   0  0  0  0  0  0  0  0  0  0  0  0
   24.2856   70.5975   -0.9156 O   0  0  0  0  0  0  0  0  0  0  0  0
   23.9560   70.8132   -2.0723 C   0  0  0  0  0  0  0  0  0  0  0  0
  1  4  1  0
  1 24  1  0
  1  2  1  6
  1  3  2  0
 25 28  1  0
 25 24  1  0
 25 26  1  1
 25 27  2  0
  6 11  1  0
  6 12  1  0
 29 36  1  0
 29 37  1  0
  9  7  1  6
  7 13  1  0
 10  8  1  6
  8 14  1  0
  4  5  1  0
 36 28  1  6
 33 30  1  1
 30 38  1  0
 34 31  1  6
 31 39  1  0
 35 32  1  6
 32 40  1  0
 41 43  1  0
 15 19  2  0
 42 43  2  0
 16 22  2  0
 12 17  1  1
 17 19  1  0
 17 20  1  0
 18 19  1  0
 18 22  1  0
 18 23  1  0
  9 10  1  0
  9 11  1  0
 10 12  1  0
 11  5  1  1
 33 34  1  0
 33 35  1  0
 34 36  1  0
 35 37  1  0
 37 43  1  1
 20 21  2  0
 21 22  1  0
M  CHG  3   2  -1  26  -1  41  -1
M  END
>  <COMPND>  (95) 
    udp_gluA.pdb 

>  <AUTHOR>  (95) 
    GENERATED BY OPEN BABEL 3.1.1

>  <MASTER>  (95) 
        0    0    0    0    0    0    0    0   56    0   56    0

>  <minimizedAffinity>  (95) 
-7.04791

>  <CNNscore>  (95) 
0.3529040813

>  <CNNaffinity>  (95) 
4.1160039902

>  <CNN_VS>  (95) 
1.4525545835

>  <CNNaffinity_variance>  (95) 
0.4253664911

$$$$
96
     RDKit          3D

 43 45  0  0  0  0  0  0  0  0999 V2000
   17.0130   74.0165   -5.5892 P   0  0  2  0  0  0  0  0  0  0  0  0
   15.8350   74.1770   -4.4914 O   0  0  0  0  0  0  0  0  0  0  0  0
   17.0661   75.1013   -6.6247 O   0  0  0  0  0  0  0  0  0  0  0  0
   16.8144   72.5139   -6.1554 O   0  0  0  0  0  0  0  0  0  0  0  0
   17.2291   72.2298   -7.4790 C   0  0  0  0  0  0  0  0  0  0  0  0
   19.0949   71.4305   -6.1914 O   0  0  0  0  0  0  0  0  0  0  0  0
   20.5308   71.1273   -8.8062 O   0  0  0  0  0  0  0  0  0  0  0  0
   19.7533   68.5727   -8.2538 O   0  0  0  0  0  0  0  0  0  0  0  0
   19.1519   70.9154   -8.5027 C   0  0  1  0  0  0  0  0  0  0  0  0
   18.9782   69.6282   -7.7248 C   0  0  2  0  0  0  0  0  0  0  0  0
   18.7290   71.9636   -7.4826 C   0  0  1  0  0  0  0  0  0  0  0  0
   19.4231   70.0391   -6.3316 C   0  0  2  0  0  0  0  0  0  0  0  0
   20.8240   70.4692   -9.4563 H   0  0  0  0  0  0  0  0  0  0  0  0
   19.4308   68.3479   -9.1411 H   0  0  0  0  0  0  0  0  0  0  0  0
   20.5363   69.4677   -3.7996 O   0  0  0  0  0  0  0  0  0  0  0  0
   16.7682   67.1781   -2.4569 O   0  0  0  0  0  0  0  0  0  0  0  0
   18.7548   69.2956   -5.3014 N   0  0  0  0  0  0  0  0  0  0  0  0
   18.6589   68.3270   -3.1337 N   0  0  0  0  0  0  0  0  0  0  0  0
   19.4025   69.0638   -4.0649 C   0  0  0  0  0  0  0  0  0  0  0  0
   17.4726   68.8064   -5.5197 C   0  0  0  0  0  0  0  0  0  0  0  0
   16.7763   68.1059   -4.6224 C   0  0  0  0  0  0  0  0  0  0  0  0
   17.3813   67.8191   -3.3051 C   0  0  0  0  0  0  0  0  0  0  0  0
   19.0898   68.1511   -2.2661 H   0  0  0  0  0  0  0  0  0  0  0  0
   18.3426   73.8890   -4.6788 O   0  0  0  0  0  0  0  0  0  0  0  0
   18.5598   73.2809   -3.1967 P   0  0  2  0  0  0  0  0  0  0  0  0
   17.6430   71.9468   -3.2063 O   0  0  0  0  0  0  0  0  0  0  0  0
   18.2448   74.2398   -2.0853 O   0  0  0  0  0  0  0  0  0  0  0  0
   20.0769   72.7323   -3.1977 O   0  0  0  0  0  0  0  0  0  0  0  0
   21.8778   73.0521   -1.6931 O   0  0  0  0  0  0  0  0  0  0  0  0
   23.8349   72.9108   -5.3287 O   0  0  0  0  0  0  0  0  0  0  0  0
   21.3277   74.3846   -5.0529 O   0  0  0  0  0  0  0  0  0  0  0  0
   23.9250   70.6263   -3.5333 O   0  0  0  0  0  0  0  0  0  0  0  0
   22.8139   72.5871   -4.3849 C   0  0  2  0  0  0  0  0  0  0  0  0
   22.0820   73.8622   -3.9653 C   0  0  2  0  0  0  0  0  0  0  0  0
   23.4806   71.9328   -3.1728 C   0  0  1  0  0  0  0  0  0  0  0  0
   21.1406   73.5913   -2.7909 C   0  0  1  0  0  0  0  0  0  0  0  0
   22.5105   71.8120   -2.0011 C   0  0  1  0  0  0  0  0  0  0  0  0
   23.4347   73.3281   -6.1078 H   0  0  0  0  0  0  0  0  0  0  0  0
   21.9187   74.5586   -5.8017 H   0  0  0  0  0  0  0  0  0  0  0  0
   24.5431   70.6890   -4.2782 H   0  0  0  0  0  0  0  0  0  0  0  0
   22.8272   72.2862    0.2741 O   0  0  0  0  0  0  0  0  0  0  0  0
   24.0927   70.6168   -0.6265 O   0  0  0  0  0  0  0  0  0  0  0  0
   23.2408   71.4854   -0.7392 C   0  0  0  0  0  0  0  0  0  0  0  0
  1  4  1  0
  1 24  1  0
  1  2  1  1
  1  3  2  0
 25 28  1  0
 25 24  1  0
 25 26  1  1
 25 27  2  0
  6 11  1  0
  6 12  1  0
 29 36  1  0
 29 37  1  0
  9  7  1  1
  7 13  1  0
 10  8  1  6
  8 14  1  0
  4  5  1  0
 36 28  1  6
 33 30  1  6
 30 38  1  0
 34 31  1  6
 31 39  1  0
 35 32  1  6
 32 40  1  0
 41 43  1  0
 15 19  2  0
 42 43  2  0
 16 22  2  0
 12 17  1  1
 17 19  1  0
 17 20  1  0
 18 19  1  0
 18 22  1  0
 18 23  1  0
  9 10  1  0
  9 11  1  0
 10 12  1  0
 11  5  1  1
 33 34  1  0
 33 35  1  0
 34 36  1  0
 35 37  1  0
 37 43  1  1
 20 21  2  0
 21 22  1  0
M  CHG  3   2  -1  26  -1  41  -1
M  END
>  <COMPND>  (96) 
    udp_gluA.pdb 

>  <AUTHOR>  (96) 
    GENERATED BY OPEN BABEL 3.1.1

>  <MASTER>  (96) 
        0    0    0    0    0    0    0    0   56    0   56    0

>  <minimizedAffinity>  (96) 
-7.29589

>  <CNNscore>  (96) 
0.3518152535

>  <CNNaffinity>  (96) 
4.1677551270

>  <CNN_VS>  (96) 
1.4662798643

>  <CNNaffinity_variance>  (96) 
0.5620608926

$$$$
97
     RDKit          3D

 43 45  0  0  0  0  0  0  0  0999 V2000
   19.4228   71.4361   -0.8806 P   0  0  2  0  0  0  0  0  0  0  0  0
   19.0629   69.8583   -0.8762 O   0  0  0  0  0  0  0  0  0  0  0  0
   18.9446   72.1984    0.3202 O   0  0  0  0  0  0  0  0  0  0  0  0
   18.8698   71.9567   -2.3093 O   0  0  0  0  0  0  0  0  0  0  0  0
   18.2911   73.2469   -2.3808 C   0  0  0  0  0  0  0  0  0  0  0  0
   17.7956   72.1944   -4.4842 O   0  0  0  0  0  0  0  0  0  0  0  0
   15.8381   74.4225   -4.9263 O   0  0  0  0  0  0  0  0  0  0  0  0
   14.2312   72.3654   -4.1376 O   0  0  0  0  0  0  0  0  0  0  0  0
   16.1842   73.7507   -3.7148 C   0  0  1  0  0  0  0  0  0  0  0  0
   15.5704   72.3670   -3.6891 C   0  0  2  0  0  0  0  0  0  0  0  0
   17.6736   73.4378   -3.7602 C   0  0  1  0  0  0  0  0  0  0  0  0
   16.4970   71.5937   -4.6118 C   0  0  2  0  0  0  0  0  0  0  0  0
   14.8908   74.6328   -4.9205 H   0  0  0  0  0  0  0  0  0  0  0  0
   13.6817   72.8699   -3.5168 H   0  0  0  0  0  0  0  0  0  0  0  0
   17.5168   69.5802   -6.3096 O   0  0  0  0  0  0  0  0  0  0  0  0
   16.7988   66.2996   -3.1527 O   0  0  0  0  0  0  0  0  0  0  0  0
   16.5881   70.2052   -4.2588 N   0  0  0  0  0  0  0  0  0  0  0  0
   17.1573   67.9481   -4.7360 N   0  0  0  0  0  0  0  0  0  0  0  0
   17.1160   69.2747   -5.1849 C   0  0  0  0  0  0  0  0  0  0  0  0
   16.1594   69.7779   -3.0080 C   0  0  0  0  0  0  0  0  0  0  0  0
   16.2051   68.5100   -2.5944 C   0  0  0  0  0  0  0  0  0  0  0  0
   16.7421   67.4748   -3.5018 C   0  0  0  0  0  0  0  0  0  0  0  0
   17.5190   67.2817   -5.3641 H   0  0  0  0  0  0  0  0  0  0  0  0
   21.0259   71.4421   -1.0875 O   0  0  0  0  0  0  0  0  0  0  0  0
   22.1299   72.5859   -0.7933 P   0  0  2  0  0  0  0  0  0  0  0  0
   23.3615   71.7548   -0.1509 O   0  0  0  0  0  0  0  0  0  0  0  0
   21.6333   73.7156    0.0619 O   0  0  0  0  0  0  0  0  0  0  0  0
   22.6561   73.0316   -2.2517 O   0  0  0  0  0  0  0  0  0  0  0  0
   22.3999   75.1411   -3.2972 O   0  0  0  0  0  0  0  0  0  0  0  0
   22.5863   72.6059   -6.5539 O   0  0  0  0  0  0  0  0  0  0  0  0
   21.0356   71.8689   -4.1903 O   0  0  0  0  0  0  0  0  0  0  0  0
   24.8806   74.2457   -5.8480 O   0  0  0  0  0  0  0  0  0  0  0  0
   22.8820   73.0505   -5.2299 C   0  0  2  0  0  0  0  0  0  0  0  0
   21.5864   73.1596   -4.4255 C   0  0  2  0  0  0  0  0  0  0  0  0
   23.5624   74.4176   -5.3310 C   0  0  1  0  0  0  0  0  0  0  0  0
   21.8328   73.8482   -3.0823 C   0  0  1  0  0  0  0  0  0  0  0  0
   23.6579   75.0945   -3.9668 C   0  0  1  0  0  0  0  0  0  0  0  0
   22.1532   71.7387   -6.5148 H   0  0  0  0  0  0  0  0  0  0  0  0
   20.8770   71.4261   -5.0383 H   0  0  0  0  0  0  0  0  0  0  0  0
   24.8339   73.8156   -6.7162 H   0  0  0  0  0  0  0  0  0  0  0  0
   22.9163   77.3197   -3.9541 O   0  0  0  0  0  0  0  0  0  0  0  0
   25.1343   76.9648   -4.3461 O   0  0  0  0  0  0  0  0  0  0  0  0
   24.0129   76.5383   -4.1148 C   0  0  0  0  0  0  0  0  0  0  0  0
  1  4  1  0
  1 24  1  0
  1  2  1  1
  1  3  2  0
 25 28  1  0
 25 24  1  0
 25 26  1  1
 25 27  2  0
  6 11  1  0
  6 12  1  0
 29 36  1  0
 29 37  1  0
  9  7  1  6
  7 13  1  0
 10  8  1  6
  8 14  1  0
  4  5  1  0
 36 28  1  1
 33 30  1  6
 30 38  1  0
 34 31  1  1
 31 39  1  0
 35 32  1  1
 32 40  1  0
 41 43  1  0
 15 19  2  0
 42 43  2  0
 16 22  2  0
 12 17  1  1
 17 19  1  0
 17 20  1  0
 18 19  1  0
 18 22  1  0
 18 23  1  0
  9 10  1  0
  9 11  1  0
 10 12  1  0
 11  5  1  1
 33 34  1  0
 33 35  1  0
 34 36  1  0
 35 37  1  0
 37 43  1  6
 20 21  2  0
 21 22  1  0
M  CHG  3   2  -1  26  -1  41  -1
M  END
>  <COMPND>  (97) 
    udp_gluA.pdb 

>  <AUTHOR>  (97) 
    GENERATED BY OPEN BABEL 3.1.1

>  <MASTER>  (97) 
        0    0    0    0    0    0    0    0   56    0   56    0

>  <minimizedAffinity>  (97) 
-6.34047

>  <CNNscore>  (97) 
0.3304623067

>  <CNNaffinity>  (97) 
3.9742598534

>  <CNN_VS>  (97) 
1.3133430481

>  <CNNaffinity_variance>  (97) 
0.2238100320

$$$$
98
     RDKit          3D

 43 45  0  0  0  0  0  0  0  0999 V2000
   22.9616   72.5319   -4.0638 P   0  0  2  0  0  0  0  0  0  0  0  0
   23.9085   71.3925   -3.4126 O   0  0  0  0  0  0  0  0  0  0  0  0
   22.9869   73.8560   -3.3582 O   0  0  0  0  0  0  0  0  0  0  0  0
   21.5127   71.8194   -4.1691 O   0  0  0  0  0  0  0  0  0  0  0  0
   21.2861   70.6352   -3.4269 C   0  0  0  0  0  0  0  0  0  0  0  0
   18.9858   71.1939   -3.8443 O   0  0  0  0  0  0  0  0  0  0  0  0
   18.3339   69.4906   -1.4641 O   0  0  0  0  0  0  0  0  0  0  0  0
   17.7466   67.8421   -3.5554 O   0  0  0  0  0  0  0  0  0  0  0  0
   19.3446   69.3085   -2.4561 C   0  0  1  0  0  0  0  0  0  0  0  0
   18.7249   68.8407   -3.7559 C   0  0  2  0  0  0  0  0  0  0  0  0
   19.8831   70.6811   -2.8356 C   0  0  1  0  0  0  0  0  0  0  0  0
   18.1403   70.1295   -4.3083 C   0  0  2  0  0  0  0  0  0  0  0  0
   17.9747   68.6270   -1.2057 H   0  0  0  0  0  0  0  0  0  0  0  0
   18.1686   67.0421   -3.2034 H   0  0  0  0  0  0  0  0  0  0  0  0
   16.0498   71.2404   -5.8485 O   0  0  0  0  0  0  0  0  0  0  0  0
   18.1378   70.1423   -9.8081 O   0  0  0  0  0  0  0  0  0  0  0  0
   18.1121   70.1475   -5.7435 N   0  0  0  0  0  0  0  0  0  0  0  0
   17.0913   70.6915   -7.8191 N   0  0  0  0  0  0  0  0  0  0  0  0
   17.0147   70.7301   -6.4207 C   0  0  0  0  0  0  0  0  0  0  0  0
   19.1630   69.5943   -6.4649 C   0  0  0  0  0  0  0  0  0  0  0  0
   19.2219   69.5650   -7.7977 C   0  0  0  0  0  0  0  0  0  0  0  0
   18.1150   70.1520   -8.5810 C   0  0  0  0  0  0  0  0  0  0  0  0
   16.3378   71.0893   -8.3126 H   0  0  0  0  0  0  0  0  0  0  0  0
   23.4560   72.5791   -5.6020 O   0  0  0  0  0  0  0  0  0  0  0  0
   23.1226   73.6208   -6.7926 P   0  0  2  0  0  0  0  0  0  0  0  0
   21.5863   74.0381   -6.4995 O   0  0  0  0  0  0  0  0  0  0  0  0
   23.3636   73.0779   -8.1713 O   0  0  0  0  0  0  0  0  0  0  0  0
   23.9785   74.9403   -6.4335 O   0  0  0  0  0  0  0  0  0  0  0  0
   26.0999   74.7849   -7.4751 O   0  0  0  0  0  0  0  0  0  0  0  0
   26.4195   78.3701   -5.4472 O   0  0  0  0  0  0  0  0  0  0  0  0
   25.1625   76.0582   -4.1786 O   0  0  0  0  0  0  0  0  0  0  0  0
   26.0108   78.3531   -8.3253 O   0  0  0  0  0  0  0  0  0  0  0  0
   25.7477   77.3311   -6.1594 C   0  0  2  0  0  0  0  0  0  0  0  0
   25.8930   76.0128   -5.3989 C   0  0  2  0  0  0  0  0  0  0  0  0
   26.3858   77.2190   -7.5458 C   0  0  1  0  0  0  0  0  0  0  0  0
   25.3879   74.8385   -6.2383 C   0  0  1  0  0  0  0  0  0  0  0  0
   25.9273   75.9563   -8.2696 C   0  0  1  0  0  0  0  0  0  0  0  0
   26.0309   78.4597   -4.5628 H   0  0  0  0  0  0  0  0  0  0  0  0
   25.4776   76.8012   -3.6411 H   0  0  0  0  0  0  0  0  0  0  0  0
   26.2967   79.1635   -7.8756 H   0  0  0  0  0  0  0  0  0  0  0  0
   26.5393   76.5810  -10.4460 O   0  0  0  0  0  0  0  0  0  0  0  0
   27.6094   74.7827   -9.5403 O   0  0  0  0  0  0  0  0  0  0  0  0
   26.7889   75.6845   -9.4596 C   0  0  0  0  0  0  0  0  0  0  0  0
  1  4  1  0
  1 24  1  0
  1  2  1  1
  1  3  2  0
 25 28  1  0
 25 24  1  0
 25 26  1  6
 25 27  2  0
  6 11  1  0
  6 12  1  0
 29 36  1  0
 29 37  1  0
  9  7  1  1
  7 13  1  0
 10  8  1  1
  8 14  1  0
  4  5  1  0
 36 28  1  6
 33 30  1  1
 30 38  1  0
 34 31  1  1
 31 39  1  0
 35 32  1  6
 32 40  1  0
 41 43  1  0
 15 19  2  0
 42 43  2  0
 16 22  2  0
 12 17  1  6
 17 19  1  0
 17 20  1  0
 18 19  1  0
 18 22  1  0
 18 23  1  0
  9 10  1  0
  9 11  1  0
 10 12  1  0
 11  5  1  6
 33 34  1  0
 33 35  1  0
 34 36  1  0
 35 37  1  0
 37 43  1  6
 20 21  2  0
 21 22  1  0
M  CHG  3   2  -1  26  -1  41  -1
M  END
>  <COMPND>  (98) 
    udp_gluA.pdb 

>  <AUTHOR>  (98) 
    GENERATED BY OPEN BABEL 3.1.1

>  <MASTER>  (98) 
        0    0    0    0    0    0    0    0   56    0   56    0

>  <minimizedAffinity>  (98) 
-7.28825

>  <CNNscore>  (98) 
0.3139545321

>  <CNNaffinity>  (98) 
4.2104048729

>  <CNN_VS>  (98) 
1.3218756914

>  <CNNaffinity_variance>  (98) 
0.2131923884

$$$$
99
     RDKit          3D

 43 45  0  0  0  0  0  0  0  0999 V2000
   19.8207   75.8097   -5.2094 P   0  0  2  0  0  0  0  0  0  0  0  0
   19.0452   76.9547   -6.0498 O   0  0  0  0  0  0  0  0  0  0  0  0
   21.2698   75.6386   -5.5597 O   0  0  0  0  0  0  0  0  0  0  0  0
   18.8934   74.4968   -5.3944 O   0  0  0  0  0  0  0  0  0  0  0  0
   17.8543   74.5329   -6.3553 C   0  0  0  0  0  0  0  0  0  0  0  0
   18.7064   72.3620   -6.9375 O   0  0  0  0  0  0  0  0  0  0  0  0
   17.4830   72.8113   -9.6381 O   0  0  0  0  0  0  0  0  0  0  0  0
   15.6691   71.1745   -8.4271 O   0  0  0  0  0  0  0  0  0  0  0  0
   17.0039   73.2054   -8.3521 C   0  0  1  0  0  0  0  0  0  0  0  0
   16.4611   72.0058   -7.6048 C   0  0  2  0  0  0  0  0  0  0  0  0
   18.2058   73.5935   -7.5017 C   0  0  1  0  0  0  0  0  0  0  0  0
   17.7349   71.3229   -7.1368 C   0  0  2  0  0  0  0  0  0  0  0  0
   16.7329   72.5588  -10.1995 H   0  0  0  0  0  0  0  0  0  0  0  0
   14.8704   71.6545   -8.6984 H   0  0  0  0  0  0  0  0  0  0  0  0
   19.4458   69.2754   -6.2113 O   0  0  0  0  0  0  0  0  0  0  0  0
   16.9419   68.6589   -2.3911 O   0  0  0  0  0  0  0  0  0  0  0  0
   17.5535   70.6106   -5.9037 N   0  0  0  0  0  0  0  0  0  0  0  0
   18.1965   68.9696   -4.3100 N   0  0  0  0  0  0  0  0  0  0  0  0
   18.4704   69.5993   -5.5313 C   0  0  0  0  0  0  0  0  0  0  0  0
   16.4789   70.9166   -5.0775 C   0  0  0  0  0  0  0  0  0  0  0  0
   16.2310   70.3078   -3.9162 C   0  0  0  0  0  0  0  0  0  0  0  0
   17.1406   69.2388   -3.4543 C   0  0  0  0  0  0  0  0  0  0  0  0
   18.8199   68.2606   -4.0305 H   0  0  0  0  0  0  0  0  0  0  0  0
   19.5447   76.2362   -3.6748 O   0  0  0  0  0  0  0  0  0  0  0  0
   19.7557   75.4239   -2.2931 P   0  0  2  0  0  0  0  0  0  0  0  0
   18.3069   74.7491   -2.0358 O   0  0  0  0  0  0  0  0  0  0  0  0
   20.2572   76.2647   -1.1549 O   0  0  0  0  0  0  0  0  0  0  0  0
   20.7159   74.1888   -2.6869 O   0  0  0  0  0  0  0  0  0  0  0  0
   20.7625   72.4715   -1.0565 O   0  0  0  0  0  0  0  0  0  0  0  0
   23.7628   71.2695   -3.6296 O   0  0  0  0  0  0  0  0  0  0  0  0
   23.4881   74.0812   -2.8859 O   0  0  0  0  0  0  0  0  0  0  0  0
   21.1857   69.9249   -3.6638 O   0  0  0  0  0  0  0  0  0  0  0  0
   22.5277   71.8858   -3.2654 C   0  0  2  0  0  0  0  0  0  0  0  0
   22.7924   73.0084   -2.2617 C   0  0  2  0  0  0  0  0  0  0  0  0
   21.6306   70.8145   -2.6415 C   0  0  1  0  0  0  0  0  0  0  0  0
   21.4829   73.5380   -1.6755 C   0  0  1  0  0  0  0  0  0  0  0  0
   20.4091   71.4337   -1.9682 C   0  0  1  0  0  0  0  0  0  0  0  0
   24.3495   71.9314   -4.0284 H   0  0  0  0  0  0  0  0  0  0  0  0
   24.3199   73.7522   -3.2604 H   0  0  0  0  0  0  0  0  0  0  0  0
   21.9536   69.5241   -4.1003 H   0  0  0  0  0  0  0  0  0  0  0  0
   18.6077   70.9723   -0.5387 O   0  0  0  0  0  0  0  0  0  0  0  0
   20.1077   69.2928   -0.8972 O   0  0  0  0  0  0  0  0  0  0  0  0
   19.7238   70.4364   -1.0920 C   0  0  0  0  0  0  0  0  0  0  0  0
  1  4  1  0
  1 24  1  0
  1  2  1  6
  1  3  2  0
 25 28  1  0
 25 24  1  0
 25 26  1  1
 25 27  2  0
  6 11  1  0
  6 12  1  0
 29 36  1  0
 29 37  1  0
  9  7  1  6
  7 13  1  0
 10  8  1  6
  8 14  1  0
  4  5  1  0
 36 28  1  6
 33 30  1  1
 30 38  1  0
 34 31  1  6
 31 39  1  0
 35 32  1  6
 32 40  1  0
 41 43  1  0
 15 19  2  0
 42 43  2  0
 16 22  2  0
 12 17  1  1
 17 19  1  0
 17 20  1  0
 18 19  1  0
 18 22  1  0
 18 23  1  0
  9 10  1  0
  9 11  1  0
 10 12  1  0
 11  5  1  1
 33 34  1  0
 33 35  1  0
 34 36  1  0
 35 37  1  0
 37 43  1  1
 20 21  2  0
 21 22  1  0
M  CHG  3   2  -1  26  -1  41  -1
M  END
>  <COMPND>  (99) 
    udp_gluA.pdb 

>  <AUTHOR>  (99) 
    GENERATED BY OPEN BABEL 3.1.1

>  <MASTER>  (99) 
        0    0    0    0    0    0    0    0   56    0   56    0

>  <minimizedAffinity>  (99) 
-6.75448

>  <CNNscore>  (99) 
0.2887434661

>  <CNNaffinity>  (99) 
3.9746613503

>  <CNN_VS>  (99) 
1.1476575136

>  <CNNaffinity_variance>  (99) 
0.5083115101

$$$$
100
     RDKit          3D

 43 45  0  0  0  0  0  0  0  0999 V2000
   16.9429   71.8306   -7.3471 P   0  0  2  0  0  0  0  0  0  0  0  0
   15.3834   72.1172   -7.6703 O   0  0  0  0  0  0  0  0  0  0  0  0
   17.8852   72.0990   -8.4837 O   0  0  0  0  0  0  0  0  0  0  0  0
   16.9489   70.3184   -6.7716 O   0  0  0  0  0  0  0  0  0  0  0  0
   18.1591   69.7967   -6.2540 C   0  0  0  0  0  0  0  0  0  0  0  0
   19.0295   68.6870   -4.3076 O   0  0  0  0  0  0  0  0  0  0  0  0
   16.1727   68.2552   -3.5051 O   0  0  0  0  0  0  0  0  0  0  0  0
   16.9124   70.3754   -1.9578 O   0  0  0  0  0  0  0  0  0  0  0  0
   16.7663   69.3719   -4.1678 C   0  0  1  0  0  0  0  0  0  0  0  0
   17.5804   70.1906   -3.1883 C   0  0  2  0  0  0  0  0  0  0  0  0
   17.8391   68.8432   -5.1100 C   0  0  1  0  0  0  0  0  0  0  0  0
   18.8410   69.3543   -3.0496 C   0  0  2  0  0  0  0  0  0  0  0  0
   15.4839   68.5682   -2.8974 H   0  0  0  0  0  0  0  0  0  0  0  0
   16.1174   70.9137   -2.0992 H   0  0  0  0  0  0  0  0  0  0  0  0
   20.2547   69.3027   -0.6052 O   0  0  0  0  0  0  0  0  0  0  0  0
   23.2733   72.4608   -2.0741 O   0  0  0  0  0  0  0  0  0  0  0  0
   20.0000   70.1528   -2.7664 N   0  0  0  0  0  0  0  0  0  0  0  0
   21.7562   70.8764   -1.3387 N   0  0  0  0  0  0  0  0  0  0  0  0
   20.6361   70.0517   -1.5065 C   0  0  0  0  0  0  0  0  0  0  0  0
   20.4958   71.0221   -3.7305 C   0  0  0  0  0  0  0  0  0  0  0  0
   21.5645   71.8018   -3.5559 C   0  0  0  0  0  0  0  0  0  0  0  0
   22.2865   71.7573   -2.2674 C   0  0  0  0  0  0  0  0  0  0  0  0
   22.2146   70.8250   -0.4690 H   0  0  0  0  0  0  0  0  0  0  0  0
   17.2098   72.7232   -6.0261 O   0  0  0  0  0  0  0  0  0  0  0  0
   16.1886   73.5246   -5.0625 P   0  0  2  0  0  0  0  0  0  0  0  0
   15.1962   72.3629   -4.5276 O   0  0  0  0  0  0  0  0  0  0  0  0
   15.4912   74.6764   -5.7264 O   0  0  0  0  0  0  0  0  0  0  0  0
   17.0728   73.9293   -3.7753 O   0  0  0  0  0  0  0  0  0  0  0  0
   17.2597   73.2520   -1.5136 O   0  0  0  0  0  0  0  0  0  0  0  0
   17.3279   77.3682   -1.1669 O   0  0  0  0  0  0  0  0  0  0  0  0
   15.4687   76.0677   -3.0071 O   0  0  0  0  0  0  0  0  0  0  0  0
   19.7842   75.8391   -0.8845 O   0  0  0  0  0  0  0  0  0  0  0  0
   17.5698   76.1091   -1.7947 C   0  0  2  0  0  0  0  0  0  0  0  0
   16.2413   75.3881   -2.0243 C   0  0  2  0  0  0  0  0  0  0  0  0
   18.4699   75.2852   -0.8711 C   0  0  1  0  0  0  0  0  0  0  0  0
   16.4727   73.9472   -2.4814 C   0  0  1  0  0  0  0  0  0  0  0  0
   18.5492   73.8300   -1.3235 C   0  0  1  0  0  0  0  0  0  0  0  0
   16.7578   77.9091   -1.7357 H   0  0  0  0  0  0  0  0  0  0  0  0
   15.3183   76.9828   -2.7237 H   0  0  0  0  0  0  0  0  0  0  0  0
   19.7477   76.7653   -0.5987 H   0  0  0  0  0  0  0  0  0  0  0  0
   18.2928   71.9800    0.0953 O   0  0  0  0  0  0  0  0  0  0  0  0
   20.2514   73.1384    0.2404 O   0  0  0  0  0  0  0  0  0  0  0  0
   19.1463   72.9740   -0.2544 C   0  0  0  0  0  0  0  0  0  0  0  0
  1  4  1  0
  1 24  1  0
  1  2  1  6
  1  3  2  0
 25 28  1  0
 25 24  1  0
 25 26  1  1
 25 27  2  0
  6 11  1  0
  6 12  1  0
 29 36  1  0
 29 37  1  0
  9  7  1  1
  7 13  1  0
 10  8  1  1
  8 14  1  0
  4  5  1  0
 36 28  1  6
 33 30  1  1
 30 38  1  0
 34 31  1  6
 31 39  1  0
 35 32  1  6
 32 40  1  0
 41 43  1  0
 15 19  2  0
 42 43  2  0
 16 22  2  0
 12 17  1  6
 17 19  1  0
 17 20  1  0
 18 19  1  0
 18 22  1  0
 18 23  1  0
  9 10  1  0
  9 11  1  0
 10 12  1  0
 11  5  1  6
 33 34  1  0
 33 35  1  0
 34 36  1  0
 35 37  1  0
 37 43  1  1
 20 21  2  0
 21 22  1  0
M  CHG  3   2  -1  26  -1  41  -1
M  END
>  <COMPND>  (100) 
    udp_gluA.pdb 

>  <AUTHOR>  (100) 
    GENERATED BY OPEN BABEL 3.1.1

>  <MASTER>  (100) 
        0    0    0    0    0    0    0    0   56    0   56    0

>  <minimizedAffinity>  (100) 
-5.51267

>  <CNNscore>  (100) 
0.2817912698

>  <CNNaffinity>  (100) 
3.7728056908

>  <CNN_VS>  (100) 
1.0631437302

>  <CNNaffinity_variance>  (100) 
0.3692778945

$$$$
101
     RDKit          3D

 43 45  0  0  0  0  0  0  0  0999 V2000
   20.4120   71.4707   -1.4775 P   0  0  2  0  0  0  0  0  0  0  0  0
   19.3541   71.4355   -0.2534 O   0  0  0  0  0  0  0  0  0  0  0  0
   20.1410   72.5164   -2.5191 O   0  0  0  0  0  0  0  0  0  0  0  0
   20.4437   69.9424   -2.0077 O   0  0  0  0  0  0  0  0  0  0  0  0
   19.8208   69.6424   -3.2432 C   0  0  0  0  0  0  0  0  0  0  0  0
   17.8089   70.5470   -4.1980 O   0  0  0  0  0  0  0  0  0  0  0  0
   16.3306   68.6033   -2.4578 O   0  0  0  0  0  0  0  0  0  0  0  0
   16.2867   67.3761   -4.8926 O   0  0  0  0  0  0  0  0  0  0  0  0
   17.5792   68.4443   -3.1318 C   0  0  1  0  0  0  0  0  0  0  0  0
   17.3532   68.2601   -4.6175 C   0  0  2  0  0  0  0  0  0  0  0  0
   18.3120   69.7781   -3.0840 C   0  0  1  0  0  0  0  0  0  0  0  0
   17.0668   69.6812   -5.0715 C   0  0  2  0  0  0  0  0  0  0  0  0
   15.8442   67.7638   -2.4753 H   0  0  0  0  0  0  0  0  0  0  0  0
   16.5179   66.4850   -4.5851 H   0  0  0  0  0  0  0  0  0  0  0  0
   15.6581   71.2967   -6.9107 O   0  0  0  0  0  0  0  0  0  0  0  0
   18.7483   70.5180  -10.2406 O   0  0  0  0  0  0  0  0  0  0  0  0
   17.4808   69.9178   -6.4256 N   0  0  0  0  0  0  0  0  0  0  0  0
   17.1980   70.9065   -8.5677 N   0  0  0  0  0  0  0  0  0  0  0  0
   16.7012   70.7457   -7.2676 C   0  0  0  0  0  0  0  0  0  0  0  0
   18.6470   69.3349   -6.9062 C   0  0  0  0  0  0  0  0  0  0  0  0
   19.1079   69.4976   -8.1479 C   0  0  0  0  0  0  0  0  0  0  0  0
   18.3521   70.3469   -9.0917 C   0  0  0  0  0  0  0  0  0  0  0  0
   16.6712   71.4769   -9.1731 H   0  0  0  0  0  0  0  0  0  0  0  0
   21.8339   71.6235   -0.7240 O   0  0  0  0  0  0  0  0  0  0  0  0
   23.3434   71.6563   -1.3021 P   0  0  2  0  0  0  0  0  0  0  0  0
   23.1287   71.5498   -2.9030 O   0  0  0  0  0  0  0  0  0  0  0  0
   24.2458   70.6029   -0.7277 O   0  0  0  0  0  0  0  0  0  0  0  0
   23.8423   73.1709   -1.0581 O   0  0  0  0  0  0  0  0  0  0  0  0
   23.4039   74.8252    0.5791 O   0  0  0  0  0  0  0  0  0  0  0  0
   23.4947   77.0741   -2.8853 O   0  0  0  0  0  0  0  0  0  0  0  0
   22.1534   74.4793   -2.8390 O   0  0  0  0  0  0  0  0  0  0  0  0
   25.7439   77.1382   -1.0447 O   0  0  0  0  0  0  0  0  0  0  0  0
   23.8584   75.9986   -2.0200 C   0  0  2  0  0  0  0  0  0  0  0  0
   22.6183   75.1696   -1.6848 C   0  0  2  0  0  0  0  0  0  0  0  0
   24.4578   76.5985   -0.7461 C   0  0  1  0  0  0  0  0  0  0  0  0
   22.9215   74.1519   -0.5843 C   0  0  1  0  0  0  0  0  0  0  0  0
   24.6128   75.5446    0.3465 C   0  0  1  0  0  0  0  0  0  0  0  0
   23.1112   76.7169   -3.7018 H   0  0  0  0  0  0  0  0  0  0  0  0
   21.9593   75.1189   -3.5415 H   0  0  0  0  0  0  0  0  0  0  0  0
   25.6593   77.8103   -1.7390 H   0  0  0  0  0  0  0  0  0  0  0  0
   26.2047   76.1489    1.9597 O   0  0  0  0  0  0  0  0  0  0  0  0
   24.0306   76.6822    2.3930 O   0  0  0  0  0  0  0  0  0  0  0  0
   24.8808   76.1867    1.6687 C   0  0  0  0  0  0  0  0  0  0  0  0
  1  4  1  0
  1 24  1  0
  1  2  1  1
  1  3  2  0
 25 28  1  0
 25 24  1  0
 25 26  1  6
 25 27  2  0
  6 11  1  0
  6 12  1  0
 29 36  1  0
 29 37  1  0
  9  7  1  1
  7 13  1  0
 10  8  1  1
  8 14  1  0
  4  5  1  0
 36 28  1  6
 33 30  1  6
 30 38  1  0
 34 31  1  6
 31 39  1  0
 35 32  1  6
 32 40  1  0
 41 43  1  0
 15 19  2  0
 42 43  2  0
 16 22  2  0
 12 17  1  6
 17 19  1  0
 17 20  1  0
 18 19  1  0
 18 22  1  0
 18 23  1  0
  9 10  1  0
  9 11  1  0
 10 12  1  0
 11  5  1  6
 33 34  1  0
 33 35  1  0
 34 36  1  0
 35 37  1  0
 37 43  1  1
 20 21  2  0
 21 22  1  0
M  CHG  3   2  -1  26  -1  41  -1
M  END
>  <COMPND>  (101) 
    udp_gluA.pdb 

>  <AUTHOR>  (101) 
    GENERATED BY OPEN BABEL 3.1.1

>  <MASTER>  (101) 
        0    0    0    0    0    0    0    0   56    0   56    0

>  <minimizedAffinity>  (101) 
-7.86121

>  <CNNscore>  (101) 
0.6576433778

>  <CNNaffinity>  (101) 
4.6365423203

>  <CNN_VS>  (101) 
3.0491912365

>  <CNNaffinity_variance>  (101) 
0.0156887714

$$$$
102
     RDKit          3D

 43 45  0  0  0  0  0  0  0  0999 V2000
   22.5486   73.3215   -6.5517 P   0  0  2  0  0  0  0  0  0  0  0  0
   22.7983   74.3177   -7.8023 O   0  0  0  0  0  0  0  0  0  0  0  0
   23.7895   72.8954   -5.8235 O   0  0  0  0  0  0  0  0  0  0  0  0
   21.6567   72.1263   -7.1791 O   0  0  0  0  0  0  0  0  0  0  0  0
   20.2653   72.3335   -7.3395 C   0  0  0  0  0  0  0  0  0  0  0  0
   19.6972   70.0103   -7.0988 O   0  0  0  0  0  0  0  0  0  0  0  0
   17.8886   70.3998   -9.4586 O   0  0  0  0  0  0  0  0  0  0  0  0
   16.1524   70.4814   -7.3574 O   0  0  0  0  0  0  0  0  0  0  0  0
   18.1928   71.3020   -8.3946 C   0  0  1  0  0  0  0  0  0  0  0  0
   17.4899   70.8709   -7.1248 C   0  0  2  0  0  0  0  0  0  0  0  0
   19.6584   71.1166   -8.0261 C   0  0  1  0  0  0  0  0  0  0  0  0
   18.3619   69.7180   -6.6575 C   0  0  2  0  0  0  0  0  0  0  0  0
   16.9571   70.4998   -9.7114 H   0  0  0  0  0  0  0  0  0  0  0  0
   15.6385   71.2500   -7.6526 H   0  0  0  0  0  0  0  0  0  0  0  0
   16.1936   68.7113   -5.1536 O   0  0  0  0  0  0  0  0  0  0  0  0
   18.4769   69.2166   -1.1818 O   0  0  0  0  0  0  0  0  0  0  0  0
   18.3628   69.5757   -5.2290 N   0  0  0  0  0  0  0  0  0  0  0  0
   17.3325   68.9649   -3.1768 N   0  0  0  0  0  0  0  0  0  0  0  0
   17.2219   69.0594   -4.5703 C   0  0  0  0  0  0  0  0  0  0  0  0
   19.4846   69.9436   -4.4961 C   0  0  0  0  0  0  0  0  0  0  0  0
   19.5752   69.8476   -3.1682 C   0  0  0  0  0  0  0  0  0  0  0  0
   18.4266   69.3186   -2.4038 C   0  0  0  0  0  0  0  0  0  0  0  0
   16.5500   68.6101   -2.6959 H   0  0  0  0  0  0  0  0  0  0  0  0
   21.4830   74.1341   -5.6477 O   0  0  0  0  0  0  0  0  0  0  0  0
   21.6981   75.2644   -4.5120 P   0  0  2  0  0  0  0  0  0  0  0  0
   20.2267   75.9218   -4.3611 O   0  0  0  0  0  0  0  0  0  0  0  0
   22.7870   76.2501   -4.8228 O   0  0  0  0  0  0  0  0  0  0  0  0
   21.9158   74.4352   -3.1454 O   0  0  0  0  0  0  0  0  0  0  0  0
   22.2105   72.1032   -2.8553 O   0  0  0  0  0  0  0  0  0  0  0  0
   20.3385   73.1593    0.6729 O   0  0  0  0  0  0  0  0  0  0  0  0
   19.4480   74.2865   -1.8709 O   0  0  0  0  0  0  0  0  0  0  0  0
   23.1914   72.6016    0.6449 O   0  0  0  0  0  0  0  0  0  0  0  0
   21.1854   73.3493   -0.4605 C   0  0  2  0  0  0  0  0  0  0  0  0
   20.3647   73.2057   -1.7424 C   0  0  2  0  0  0  0  0  0  0  0  0
   22.2862   72.2873   -0.4116 C   0  0  1  0  0  0  0  0  0  0  0  0
   21.2726   73.1738   -2.9727 C   0  0  1  0  0  0  0  0  0  0  0  0
   23.0661   72.2325   -1.7220 C   0  0  1  0  0  0  0  0  0  0  0  0
   19.6311   73.8232    0.6630 H   0  0  0  0  0  0  0  0  0  0  0  0
   18.8690   74.3129   -1.0935 H   0  0  0  0  0  0  0  0  0  0  0  0
   22.7075   72.6396    1.4847 H   0  0  0  0  0  0  0  0  0  0  0  0
   24.2140   70.6997   -3.0764 O   0  0  0  0  0  0  0  0  0  0  0  0
   24.2625   70.3388   -0.8255 O   0  0  0  0  0  0  0  0  0  0  0  0
   23.9024   70.9963   -1.7904 C   0  0  0  0  0  0  0  0  0  0  0  0
  1  4  1  0
  1 24  1  0
  1  2  1  6
  1  3  2  0
 25 28  1  0
 25 24  1  0
 25 26  1  1
 25 27  2  0
  6 11  1  0
  6 12  1  0
 29 36  1  0
 29 37  1  0
  9  7  1  6
  7 13  1  0
 10  8  1  6
  8 14  1  0
  4  5  1  0
 36 28  1  1
 33 30  1  1
 30 38  1  0
 34 31  1  6
 31 39  1  0
 35 32  1  1
 32 40  1  0
 41 43  1  0
 15 19  2  0
 42 43  2  0
 16 22  2  0
 12 17  1  1
 17 19  1  0
 17 20  1  0
 18 19  1  0
 18 22  1  0
 18 23  1  0
  9 10  1  0
  9 11  1  0
 10 12  1  0
 11  5  1  1
 33 34  1  0
 33 35  1  0
 34 36  1  0
 35 37  1  0
 37 43  1  1
 20 21  2  0
 21 22  1  0
M  CHG  3   2  -1  26  -1  41  -1
M  END
>  <COMPND>  (102) 
    udp_gluA.pdb 

>  <AUTHOR>  (102) 
    GENERATED BY OPEN BABEL 3.1.1

>  <MASTER>  (102) 
        0    0    0    0    0    0    0    0   56    0   56    0

>  <minimizedAffinity>  (102) 
-7.83927

>  <CNNscore>  (102) 
0.6253520250

>  <CNNaffinity>  (102) 
4.4194593430

>  <CNN_VS>  (102) 
2.7637178898

>  <CNNaffinity_variance>  (102) 
0.7497595549

$$$$
103
     RDKit          3D

 43 45  0  0  0  0  0  0  0  0999 V2000
   20.4733   70.5537   -1.5886 P   0  0  2  0  0  0  0  0  0  0  0  0
   20.2446   69.2830   -0.6131 O   0  0  0  0  0  0  0  0  0  0  0  0
   19.5920   71.7353   -1.3073 O   0  0  0  0  0  0  0  0  0  0  0  0
   20.3556   69.9278   -3.0760 O   0  0  0  0  0  0  0  0  0  0  0  0
   19.4711   68.8422   -3.2847 C   0  0  0  0  0  0  0  0  0  0  0  0
   17.7685   70.2774   -4.1895 O   0  0  0  0  0  0  0  0  0  0  0  0
   15.8127   68.6418   -2.6112 O   0  0  0  0  0  0  0  0  0  0  0  0
   15.5365   67.6339   -5.1300 O   0  0  0  0  0  0  0  0  0  0  0  0
   17.0024   68.2275   -3.2830 C   0  0  1  0  0  0  0  0  0  0  0  0
   16.7789   68.2074   -4.7803 C   0  0  2  0  0  0  0  0  0  0  0  0
   18.0376   69.3335   -3.1303 C   0  0  1  0  0  0  0  0  0  0  0  0
   16.8613   69.6831   -5.1314 C   0  0  2  0  0  0  0  0  0  0  0  0
   15.1363   67.9510   -2.6951 H   0  0  0  0  0  0  0  0  0  0  0  0
   15.5342   66.6944   -4.8866 H   0  0  0  0  0  0  0  0  0  0  0  0
   15.6449   71.3888   -7.0255 O   0  0  0  0  0  0  0  0  0  0  0  0
   18.8523   70.4518  -10.2001 O   0  0  0  0  0  0  0  0  0  0  0  0
   17.3574   69.9034   -6.4603 N   0  0  0  0  0  0  0  0  0  0  0  0
   17.2429   70.9197   -8.6052 N   0  0  0  0  0  0  0  0  0  0  0  0
   16.6713   70.7802   -7.3336 C   0  0  0  0  0  0  0  0  0  0  0  0
   18.5113   69.2566   -6.8860 C   0  0  0  0  0  0  0  0  0  0  0  0
   19.0441   69.3997   -8.1010 C   0  0  0  0  0  0  0  0  0  0  0  0
   18.3882   70.2972   -9.0745 C   0  0  0  0  0  0  0  0  0  0  0  0
   16.7818   71.5234   -9.2315 H   0  0  0  0  0  0  0  0  0  0  0  0
   22.0565   70.8443   -1.4409 O   0  0  0  0  0  0  0  0  0  0  0  0
   23.0611   71.7338   -2.3427 P   0  0  2  0  0  0  0  0  0  0  0  0
   24.2523   70.6978   -2.7006 O   0  0  0  0  0  0  0  0  0  0  0  0
   23.5215   73.0016   -1.6833 O   0  0  0  0  0  0  0  0  0  0  0  0
   22.2774   71.9502   -3.7360 O   0  0  0  0  0  0  0  0  0  0  0  0
   22.9636   73.9191   -4.8593 O   0  0  0  0  0  0  0  0  0  0  0  0
   19.7935   72.6774   -7.1996 O   0  0  0  0  0  0  0  0  0  0  0  0
   19.6194   72.5573   -4.2859 O   0  0  0  0  0  0  0  0  0  0  0  0
   22.5247   72.2865   -8.1157 O   0  0  0  0  0  0  0  0  0  0  0  0
   20.9177   72.5138   -6.3350 C   0  0  2  0  0  0  0  0  0  0  0  0
   20.6496   73.2229   -5.0073 C   0  0  2  0  0  0  0  0  0  0  0  0
   22.1391   73.1233   -7.0268 C   0  0  1  0  0  0  0  0  0  0  0  0
   21.9124   73.2669   -4.1458 C   0  0  1  0  0  0  0  0  0  0  0  0
   23.3184   73.2486   -6.0666 C   0  0  1  0  0  0  0  0  0  0  0  0
   19.0052   72.2974   -6.7808 H   0  0  0  0  0  0  0  0  0  0  0  0
   18.8152   72.5256   -4.8268 H   0  0  0  0  0  0  0  0  0  0  0  0
   21.7827   72.1984   -8.7343 H   0  0  0  0  0  0  0  0  0  0  0  0
   25.1549   74.6490   -5.6573 O   0  0  0  0  0  0  0  0  0  0  0  0
   24.5338   74.3571   -7.8317 O   0  0  0  0  0  0  0  0  0  0  0  0
   24.3787   74.1306   -6.6410 C   0  0  0  0  0  0  0  0  0  0  0  0
  1  4  1  0
  1 24  1  0
  1  2  1  1
  1  3  2  0
 25 28  1  0
 25 24  1  0
 25 26  1  6
 25 27  2  0
  6 11  1  0
  6 12  1  0
 29 36  1  0
 29 37  1  0
  9  7  1  1
  7 13  1  0
 10  8  1  1
  8 14  1  0
  4  5  1  0
 36 28  1  6
 33 30  1  6
 30 38  1  0
 34 31  1  1
 31 39  1  0
 35 32  1  6
 32 40  1  0
 41 43  1  0
 15 19  2  0
 42 43  2  0
 16 22  2  0
 12 17  1  6
 17 19  1  0
 17 20  1  0
 18 19  1  0
 18 22  1  0
 18 23  1  0
  9 10  1  0
  9 11  1  0
 10 12  1  0
 11  5  1  6
 33 34  1  0
 33 35  1  0
 34 36  1  0
 35 37  1  0
 37 43  1  6
 20 21  2  0
 21 22  1  0
M  CHG  3   2  -1  26  -1  41  -1
M  END
>  <COMPND>  (103) 
    udp_gluA.pdb 

>  <AUTHOR>  (103) 
    GENERATED BY OPEN BABEL 3.1.1

>  <MASTER>  (103) 
        0    0    0    0    0    0    0    0   56    0   56    0

>  <minimizedAffinity>  (103) 
-8.72029

>  <CNNscore>  (103) 
0.5858573914

>  <CNNaffinity>  (103) 
4.4357004166

>  <CNN_VS>  (103) 
2.5986878872

>  <CNNaffinity_variance>  (103) 
0.6133893728

$$$$
104
     RDKit          3D

 43 45  0  0  0  0  0  0  0  0999 V2000
   17.0160   72.8473   -3.0029 P   0  0  2  0  0  0  0  0  0  0  0  0
   15.6795   72.3825   -3.7881 O   0  0  0  0  0  0  0  0  0  0  0  0
   16.8262   73.9926   -2.0521 O   0  0  0  0  0  0  0  0  0  0  0  0
   18.0969   73.0856   -4.1830 O   0  0  0  0  0  0  0  0  0  0  0  0
   17.7114   73.8541   -5.3079 C   0  0  0  0  0  0  0  0  0  0  0  0
   18.8420   71.9328   -6.2069 O   0  0  0  0  0  0  0  0  0  0  0  0
   17.9144   72.8777   -8.8973 O   0  0  0  0  0  0  0  0  0  0  0  0
   16.1419   70.8871   -8.3211 O   0  0  0  0  0  0  0  0  0  0  0  0
   17.2464   72.9425   -7.6371 C   0  0  1  0  0  0  0  0  0  0  0  0
   16.7410   71.5714   -7.2407 C   0  0  2  0  0  0  0  0  0  0  0  0
   18.2916   73.2190   -6.5650 C   0  0  1  0  0  0  0  0  0  0  0  0
   18.0114   70.8959   -6.7529 C   0  0  2  0  0  0  0  0  0  0  0  0
   17.2667   72.7018   -9.5982 H   0  0  0  0  0  0  0  0  0  0  0  0
   15.3374   71.3561   -8.5947 H   0  0  0  0  0  0  0  0  0  0  0  0
   20.0045   69.7207   -5.1335 O   0  0  0  0  0  0  0  0  0  0  0  0
   16.9136   67.1535   -2.8752 O   0  0  0  0  0  0  0  0  0  0  0  0
   17.7553   69.9177   -5.7340 N   0  0  0  0  0  0  0  0  0  0  0  0
   18.4633   68.4425   -4.0110 N   0  0  0  0  0  0  0  0  0  0  0  0
   18.8277   69.3900   -4.9766 C   0  0  0  0  0  0  0  0  0  0  0  0
   16.4547   69.4921   -5.4922 C   0  0  0  0  0  0  0  0  0  0  0  0
   16.1229   68.5883   -4.5683 C   0  0  0  0  0  0  0  0  0  0  0  0
   17.1843   67.9872   -3.7343 C   0  0  0  0  0  0  0  0  0  0  0  0
   19.1931   68.0593   -3.4726 H   0  0  0  0  0  0  0  0  0  0  0  0
   17.5268   71.4774   -2.3135 O   0  0  0  0  0  0  0  0  0  0  0  0
   18.7437   71.1952   -1.2873 P   0  0  2  0  0  0  0  0  0  0  0  0
   18.8395   69.5794   -1.2626 O   0  0  0  0  0  0  0  0  0  0  0  0
   18.5683   71.8250    0.0642 O   0  0  0  0  0  0  0  0  0  0  0  0
   20.0661   71.6693   -2.0803 O   0  0  0  0  0  0  0  0  0  0  0  0
   22.2869   71.7650   -1.2629 O   0  0  0  0  0  0  0  0  0  0  0  0
   22.3094   74.7583   -4.1104 O   0  0  0  0  0  0  0  0  0  0  0  0
   20.0278   74.4406   -2.3138 O   0  0  0  0  0  0  0  0  0  0  0  0
   23.5847   72.2058   -4.6664 O   0  0  0  0  0  0  0  0  0  0  0  0
   21.9136   73.5163   -3.5284 C   0  0  2  0  0  0  0  0  0  0  0  0
   21.2745   73.7715   -2.1631 C   0  0  2  0  0  0  0  0  0  0  0  0
   23.1630   72.6456   -3.3768 C   0  0  1  0  0  0  0  0  0  0  0  0
   21.0477   72.4591   -1.4113 C   0  0  1  0  0  0  0  0  0  0  0  0
   22.8865   71.4206   -2.5099 C   0  0  1  0  0  0  0  0  0  0  0  0
   21.5315   75.3283   -4.2163 H   0  0  0  0  0  0  0  0  0  0  0  0
   20.1642   75.2741   -2.7903 H   0  0  0  0  0  0  0  0  0  0  0  0
   23.7638   72.9759   -5.2282 H   0  0  0  0  0  0  0  0  0  0  0  0
   24.8437   70.3168   -3.1828 O   0  0  0  0  0  0  0  0  0  0  0  0
   24.5501   70.6424   -0.9451 O   0  0  0  0  0  0  0  0  0  0  0  0
   24.1634   70.7632   -2.0979 C   0  0  0  0  0  0  0  0  0  0  0  0
  1  4  1  0
  1 24  1  0
  1  2  1  6
  1  3  2  0
 25 28  1  0
 25 24  1  0
 25 26  1  1
 25 27  2  0
  6 11  1  0
  6 12  1  0
 29 36  1  0
 29 37  1  0
  9  7  1  6
  7 13  1  0
 10  8  1  6
  8 14  1  0
  4  5  1  0
 36 28  1  6
 33 30  1  1
 30 38  1  0
 34 31  1  6
 31 39  1  0
 35 32  1  6
 32 40  1  0
 41 43  1  0
 15 19  2  0
 42 43  2  0
 16 22  2  0
 12 17  1  1
 17 19  1  0
 17 20  1  0
 18 19  1  0
 18 22  1  0
 18 23  1  0
  9 10  1  0
  9 11  1  0
 10 12  1  0
 11  5  1  1
 33 34  1  0
 33 35  1  0
 34 36  1  0
 35 37  1  0
 37 43  1  1
 20 21  2  0
 21 22  1  0
M  CHG  3   2  -1  26  -1  41  -1
M  END
>  <COMPND>  (104) 
    udp_gluA.pdb 

>  <AUTHOR>  (104) 
    GENERATED BY OPEN BABEL 3.1.1

>  <MASTER>  (104) 
        0    0    0    0    0    0    0    0   56    0   56    0

>  <minimizedAffinity>  (104) 
-7.74453

>  <CNNscore>  (104) 
0.5211884379

>  <CNNaffinity>  (104) 
4.3164176941

>  <CNN_VS>  (104) 
2.2496669292

>  <CNNaffinity_variance>  (104) 
0.4888869822

$$$$
105
     RDKit          3D

 43 45  0  0  0  0  0  0  0  0999 V2000
   22.1925   73.0590   -6.9170 P   0  0  2  0  0  0  0  0  0  0  0  0
   21.4275   74.4829   -6.9965 O   0  0  0  0  0  0  0  0  0  0  0  0
   23.6035   73.0685   -7.4276 O   0  0  0  0  0  0  0  0  0  0  0  0
   21.1837   72.0341   -7.6585 O   0  0  0  0  0  0  0  0  0  0  0  0
   20.1300   71.4601   -6.9071 C   0  0  0  0  0  0  0  0  0  0  0  0
   18.8653   69.4163   -6.9365 O   0  0  0  0  0  0  0  0  0  0  0  0
   17.8814   70.2819   -9.6335 O   0  0  0  0  0  0  0  0  0  0  0  0
   15.7887   70.9160   -8.0042 O   0  0  0  0  0  0  0  0  0  0  0  0
   18.1681   71.0725   -8.4797 C   0  0  1  0  0  0  0  0  0  0  0  0
   17.0829   70.8941   -7.4392 C   0  0  2  0  0  0  0  0  0  0  0  0
   19.3793   70.4663   -7.7841 C   0  0  1  0  0  0  0  0  0  0  0  0
   17.4375   69.5430   -6.8421 C   0  0  2  0  0  0  0  0  0  0  0  0
   17.1109   70.6499  -10.0947 H   0  0  0  0  0  0  0  0  0  0  0  0
   15.6107   71.7970   -8.3703 H   0  0  0  0  0  0  0  0  0  0  0  0
   17.4878   71.6804   -4.9967 O   0  0  0  0  0  0  0  0  0  0  0  0
   15.9253   69.0087   -1.5814 O   0  0  0  0  0  0  0  0  0  0  0  0
   17.0492   69.4337   -5.4644 N   0  0  0  0  0  0  0  0  0  0  0  0
   16.7105   70.3474   -3.2972 N   0  0  0  0  0  0  0  0  0  0  0  0
   17.1118   70.5684   -4.6213 C   0  0  0  0  0  0  0  0  0  0  0  0
   16.6109   68.2146   -4.9619 C   0  0  0  0  0  0  0  0  0  0  0  0
   16.2315   68.0195   -3.6975 C   0  0  0  0  0  0  0  0  0  0  0  0
   16.2679   69.1536   -2.7509 C   0  0  0  0  0  0  0  0  0  0  0  0
   16.7474   71.1221   -2.6907 H   0  0  0  0  0  0  0  0  0  0  0  0
   22.0427   72.6532   -5.3595 O   0  0  0  0  0  0  0  0  0  0  0  0
   23.0963   72.7327   -4.1359 P   0  0  2  0  0  0  0  0  0  0  0  0
   23.9731   74.0472   -4.4876 O   0  0  0  0  0  0  0  0  0  0  0  0
   23.9061   71.4840   -3.9384 O   0  0  0  0  0  0  0  0  0  0  0  0
   22.2094   73.1644   -2.8594 O   0  0  0  0  0  0  0  0  0  0  0  0
   19.8579   73.4248   -2.7493 O   0  0  0  0  0  0  0  0  0  0  0  0
   21.1357   76.1000    0.1280 O   0  0  0  0  0  0  0  0  0  0  0  0
   22.5363   75.8924   -2.4273 O   0  0  0  0  0  0  0  0  0  0  0  0
   19.9829   73.5501    0.9155 O   0  0  0  0  0  0  0  0  0  0  0  0
   21.1892   74.9129   -0.6633 C   0  0  2  0  0  0  0  0  0  0  0  0
   21.2801   75.2877   -2.1427 C   0  0  2  0  0  0  0  0  0  0  0  0
   19.9154   74.1082   -0.3954 C   0  0  1  0  0  0  0  0  0  0  0  0
   21.1082   74.0548   -3.0310 C   0  0  1  0  0  0  0  0  0  0  0  0
   19.7521   72.9724   -1.4013 C   0  0  1  0  0  0  0  0  0  0  0  0
   21.9352   76.6276   -0.0258 H   0  0  0  0  0  0  0  0  0  0  0  0
   22.6521   76.6754   -1.8670 H   0  0  0  0  0  0  0  0  0  0  0  0
   20.0870   74.2626    1.5654 H   0  0  0  0  0  0  0  0  0  0  0  0
   18.3549   71.2487   -0.6409 O   0  0  0  0  0  0  0  0  0  0  0  0
   17.3833   72.9156   -1.8560 O   0  0  0  0  0  0  0  0  0  0  0  0
   18.3699   72.4080   -1.3443 C   0  0  0  0  0  0  0  0  0  0  0  0
  1  4  1  0
  1 24  1  0
  1  2  1  1
  1  3  2  0
 25 28  1  0
 25 24  1  0
 25 26  1  6
 25 27  2  0
  6 11  1  0
  6 12  1  0
 29 36  1  0
 29 37  1  0
  9  7  1  6
  7 13  1  0
 10  8  1  6
  8 14  1  0
  4  5  1  0
 36 28  1  1
 33 30  1  1
 30 38  1  0
 34 31  1  1
 31 39  1  0
 35 32  1  1
 32 40  1  0
 41 43  1  0
 15 19  2  0
 42 43  2  0
 16 22  2  0
 12 17  1  1
 17 19  1  0
 17 20  1  0
 18 19  1  0
 18 22  1  0
 18 23  1  0
  9 10  1  0
  9 11  1  0
 10 12  1  0
 11  5  1  1
 33 34  1  0
 33 35  1  0
 34 36  1  0
 35 37  1  0
 37 43  1  6
 20 21  2  0
 21 22  1  0
M  CHG  3   2  -1  26  -1  41  -1
M  END
>  <COMPND>  (105) 
    udp_gluA.pdb 

>  <AUTHOR>  (105) 
    GENERATED BY OPEN BABEL 3.1.1

>  <MASTER>  (105) 
        0    0    0    0    0    0    0    0   56    0   56    0

>  <minimizedAffinity>  (105) 
-6.98758

>  <CNNscore>  (105) 
0.5110400319

>  <CNNaffinity>  (105) 
4.4255704880

>  <CNN_VS>  (105) 
2.2616436481

>  <CNNaffinity_variance>  (105) 
0.1498459429

$$$$
106
     RDKit          3D

 43 45  0  0  0  0  0  0  0  0999 V2000
   18.7264   69.1854   -4.1360 P   0  0  2  0  0  0  0  0  0  0  0  0
   19.7469   68.2075   -3.3480 O   0  0  0  0  0  0  0  0  0  0  0  0
   17.2857   68.7684   -4.0889 O   0  0  0  0  0  0  0  0  0  0  0  0
   19.3731   69.3124   -5.6137 O   0  0  0  0  0  0  0  0  0  0  0  0
   19.1394   70.4960   -6.3546 C   0  0  0  0  0  0  0  0  0  0  0  0
   16.9152   70.3440   -7.2533 O   0  0  0  0  0  0  0  0  0  0  0  0
   18.2066   70.3764   -9.9593 O   0  0  0  0  0  0  0  0  0  0  0  0
   17.3344   72.9454   -9.6846 O   0  0  0  0  0  0  0  0  0  0  0  0
   18.5834   71.0704   -8.7699 C   0  0  1  0  0  0  0  0  0  0  0  0
   17.6328   72.2198   -8.5103 C   0  0  2  0  0  0  0  0  0  0  0  0
   18.3080   70.1552   -7.5847 C   0  0  1  0  0  0  0  0  0  0  0  0
   16.4198   71.5035   -7.9414 C   0  0  2  0  0  0  0  0  0  0  0  0
   18.3735   70.9414  -10.7304 H   0  0  0  0  0  0  0  0  0  0  0  0
   18.1383   73.3831  -10.0072 H   0  0  0  0  0  0  0  0  0  0  0  0
   14.3338   73.2630   -8.6689 O   0  0  0  0  0  0  0  0  0  0  0  0
   13.6771   74.5821   -4.3017 O   0  0  0  0  0  0  0  0  0  0  0  0
   15.6867   72.3187   -7.0147 N   0  0  0  0  0  0  0  0  0  0  0  0
   14.0094   73.9191   -6.4933 N   0  0  0  0  0  0  0  0  0  0  0  0
   14.6573   73.1689   -7.4835 C   0  0  0  0  0  0  0  0  0  0  0  0
   15.9881   72.2701   -5.6591 C   0  0  0  0  0  0  0  0  0  0  0  0
   15.3616   72.9911   -4.7271 C   0  0  0  0  0  0  0  0  0  0  0  0
   14.2741   73.9052   -5.1334 C   0  0  0  0  0  0  0  0  0  0  0  0
   13.2905   74.5199   -6.7957 H   0  0  0  0  0  0  0  0  0  0  0  0
   19.0306   70.6314   -3.4808 O   0  0  0  0  0  0  0  0  0  0  0  0
   18.6073   71.2598   -2.0526 P   0  0  2  0  0  0  0  0  0  0  0  0
   18.7472   70.0046   -1.0401 O   0  0  0  0  0  0  0  0  0  0  0  0
   17.2559   71.9137   -2.0439 O   0  0  0  0  0  0  0  0  0  0  0  0
   19.8273   72.2389   -1.6585 O   0  0  0  0  0  0  0  0  0  0  0  0
   21.9776   71.2785   -1.9093 O   0  0  0  0  0  0  0  0  0  0  0  0
   22.8516   74.7854    0.0921 O   0  0  0  0  0  0  0  0  0  0  0  0
   20.5361   73.1788    0.8615 O   0  0  0  0  0  0  0  0  0  0  0  0
   23.4072   74.5509   -2.7517 O   0  0  0  0  0  0  0  0  0  0  0  0
   22.1275   73.9417   -0.8034 C   0  0  2  0  0  0  0  0  0  0  0  0
   21.5554   72.7506   -0.0343 C   0  0  2  0  0  0  0  0  0  0  0  0
   23.0954   73.4605   -1.8867 C   0  0  1  0  0  0  0  0  0  0  0  0
   20.9722   71.7103   -0.9917 C   0  0  1  0  0  0  0  0  0  0  0  0
   22.4856   72.3364   -2.7192 C   0  0  1  0  0  0  0  0  0  0  0  0
   22.2567   75.1033    0.7894 H   0  0  0  0  0  0  0  0  0  0  0  0
   20.8992   73.8392    1.4717 H   0  0  0  0  0  0  0  0  0  0  0  0
   23.7959   75.2733   -2.2342 H   0  0  0  0  0  0  0  0  0  0  0  0
   23.7081   72.3020   -4.7206 O   0  0  0  0  0  0  0  0  0  0  0  0
   24.1511   70.6591   -3.2028 O   0  0  0  0  0  0  0  0  0  0  0  0
   23.5323   71.6570   -3.5408 C   0  0  0  0  0  0  0  0  0  0  0  0
  1  4  1  0
  1 24  1  0
  1  2  1  1
  1  3  2  0
 25 28  1  0
 25 24  1  0
 25 26  1  1
 25 27  2  0
  6 11  1  0
  6 12  1  0
 29 36  1  0
 29 37  1  0
  9  7  1  6
  7 13  1  0
 10  8  1  6
  8 14  1  0
  4  5  1  0
 36 28  1  6
 33 30  1  1
 30 38  1  0
 34 31  1  1
 31 39  1  0
 35 32  1  6
 32 40  1  0
 41 43  1  0
 15 19  2  0
 42 43  2  0
 16 22  2  0
 12 17  1  1
 17 19  1  0
 17 20  1  0
 18 19  1  0
 18 22  1  0
 18 23  1  0
  9 10  1  0
  9 11  1  0
 10 12  1  0
 11  5  1  1
 33 34  1  0
 33 35  1  0
 34 36  1  0
 35 37  1  0
 37 43  1  6
 20 21  2  0
 21 22  1  0
M  CHG  3   2  -1  26  -1  41  -1
M  END
>  <COMPND>  (106) 
    udp_gluA.pdb 

>  <AUTHOR>  (106) 
    GENERATED BY OPEN BABEL 3.1.1

>  <MASTER>  (106) 
        0    0    0    0    0    0    0    0   56    0   56    0

>  <minimizedAffinity>  (106) 
-8.35426

>  <CNNscore>  (106) 
0.4988444746

>  <CNNaffinity>  (106) 
4.3997812271

>  <CNN_VS>  (106) 
2.1948065758

>  <CNNaffinity_variance>  (106) 
0.1770922095

$$$$
107
     RDKit          3D

 43 45  0  0  0  0  0  0  0  0999 V2000
   22.6495   73.3846   -6.7999 P   0  0  2  0  0  0  0  0  0  0  0  0
   23.0102   74.2808   -8.0982 O   0  0  0  0  0  0  0  0  0  0  0  0
   23.8316   72.9343   -5.9926 O   0  0  0  0  0  0  0  0  0  0  0  0
   21.7114   72.2057   -7.3899 O   0  0  0  0  0  0  0  0  0  0  0  0
   20.3065   72.3391   -7.2767 C   0  0  0  0  0  0  0  0  0  0  0  0
   19.8932   69.9952   -6.9404 O   0  0  0  0  0  0  0  0  0  0  0  0
   17.6809   70.2879   -8.9432 O   0  0  0  0  0  0  0  0  0  0  0  0
   16.3412   70.3092   -6.5682 O   0  0  0  0  0  0  0  0  0  0  0  0
   18.1279   71.2104   -7.9493 C   0  0  1  0  0  0  0  0  0  0  0  0
   17.6801   70.7584   -6.5755 C   0  0  2  0  0  0  0  0  0  0  0  0
   19.6424   71.0919   -7.8458 C   0  0  1  0  0  0  0  0  0  0  0  0
   18.6711   69.6481   -6.2702 C   0  0  2  0  0  0  0  0  0  0  0  0
   16.7158   70.3454   -9.0274 H   0  0  0  0  0  0  0  0  0  0  0  0
   15.7497   71.0524   -6.7675 H   0  0  0  0  0  0  0  0  0  0  0  0
   17.0906   68.1257   -4.4923 O   0  0  0  0  0  0  0  0  0  0  0  0
   19.7610   69.2149   -0.8969 O   0  0  0  0  0  0  0  0  0  0  0  0
   18.9306   69.5165   -4.8644 N   0  0  0  0  0  0  0  0  0  0  0  0
   18.4215   68.6704   -2.7031 N   0  0  0  0  0  0  0  0  0  0  0  0
   18.0749   68.7279   -4.0594 C   0  0  0  0  0  0  0  0  0  0  0  0
   20.0224   70.1624   -4.2972 C   0  0  0  0  0  0  0  0  0  0  0  0
   20.3401   70.0981   -3.0027 C   0  0  0  0  0  0  0  0  0  0  0  0
   19.4967   69.2957   -2.0927 C   0  0  0  0  0  0  0  0  0  0  0  0
   17.8393   68.1291   -2.1223 H   0  0  0  0  0  0  0  0  0  0  0  0
   21.6006   74.3157   -5.9963 O   0  0  0  0  0  0  0  0  0  0  0  0
   21.8385   75.5662   -4.9995 P   0  0  2  0  0  0  0  0  0  0  0  0
   21.0069   76.7635   -5.7032 O   0  0  0  0  0  0  0  0  0  0  0  0
   23.2835   75.8838   -4.7441 O   0  0  0  0  0  0  0  0  0  0  0  0
   20.9890   75.2028   -3.6771 O   0  0  0  0  0  0  0  0  0  0  0  0
   20.5932   73.3520   -2.2534 O   0  0  0  0  0  0  0  0  0  0  0  0
   16.7522   74.6843   -2.9878 O   0  0  0  0  0  0  0  0  0  0  0  0
   18.7160   74.5639   -5.1472 O   0  0  0  0  0  0  0  0  0  0  0  0
   18.0211   75.2283   -0.4295 O   0  0  0  0  0  0  0  0  0  0  0  0
   18.1614   74.8108   -2.7983 C   0  0  2  0  0  0  0  0  0  0  0  0
   18.8961   73.9893   -3.8580 C   0  0  2  0  0  0  0  0  0  0  0  0
   18.4983   74.2954   -1.3973 C   0  0  1  0  0  0  0  0  0  0  0  0
   20.3924   73.9133   -3.5511 C   0  0  1  0  0  0  0  0  0  0  0  0
   20.0037   74.1279   -1.2124 C   0  0  1  0  0  0  0  0  0  0  0  0
   16.5145   75.0059   -3.8718 H   0  0  0  0  0  0  0  0  0  0  0  0
   17.7688   74.6154   -5.3484 H   0  0  0  0  0  0  0  0  0  0  0  0
   17.0640   75.3440   -0.5365 H   0  0  0  0  0  0  0  0  0  0  0  0
   19.1634   72.8024    0.5307 O   0  0  0  0  0  0  0  0  0  0  0  0
   21.4150   73.1599    0.4884 O   0  0  0  0  0  0  0  0  0  0  0  0
   20.3018   73.3268    0.0130 C   0  0  0  0  0  0  0  0  0  0  0  0
  1  4  1  0
  1 24  1  0
  1  2  1  6
  1  3  2  0
 25 28  1  0
 25 24  1  0
 25 26  1  6
 25 27  2  0
  6 11  1  0
  6 12  1  0
 29 36  1  0
 29 37  1  0
  9  7  1  6
  7 13  1  0
 10  8  1  6
  8 14  1  0
  4  5  1  0
 36 28  1  1
 33 30  1  6
 30 38  1  0
 34 31  1  6
 31 39  1  0
 35 32  1  1
 32 40  1  0
 41 43  1  0
 15 19  2  0
 42 43  2  0
 16 22  2  0
 12 17  1  1
 17 19  1  0
 17 20  1  0
 18 19  1  0
 18 22  1  0
 18 23  1  0
  9 10  1  0
  9 11  1  0
 10 12  1  0
 11  5  1  1
 33 34  1  0
 33 35  1  0
 34 36  1  0
 35 37  1  0
 37 43  1  1
 20 21  2  0
 21 22  1  0
M  CHG  3   2  -1  26  -1  41  -1
M  END
>  <COMPND>  (107) 
    udp_gluA.pdb 

>  <AUTHOR>  (107) 
    GENERATED BY OPEN BABEL 3.1.1

>  <MASTER>  (107) 
        0    0    0    0    0    0    0    0   56    0   56    0

>  <minimizedAffinity>  (107) 
-6.30304

>  <CNNscore>  (107) 
0.4947958887

>  <CNNaffinity>  (107) 
4.1142683029

>  <CNN_VS>  (107) 
2.0357229710

>  <CNNaffinity_variance>  (107) 
0.2775122821

$$$$
108
     RDKit          3D

 43 45  0  0  0  0  0  0  0  0999 V2000
   22.6177   71.3287   -2.4478 P   0  0  2  0  0  0  0  0  0  0  0  0
   23.5900   70.4558   -3.4025 O   0  0  0  0  0  0  0  0  0  0  0  0
   22.5470   70.8655   -1.0223 O   0  0  0  0  0  0  0  0  0  0  0  0
   21.2115   71.3576   -3.2477 O   0  0  0  0  0  0  0  0  0  0  0  0
   20.5742   70.1275   -3.5395 C   0  0  0  0  0  0  0  0  0  0  0  0
   18.4300   70.8934   -4.3096 O   0  0  0  0  0  0  0  0  0  0  0  0
   17.2456   69.0898   -2.2274 O   0  0  0  0  0  0  0  0  0  0  0  0
   16.9415   67.6382   -4.5158 O   0  0  0  0  0  0  0  0  0  0  0  0
   18.4056   68.8958   -3.0369 C   0  0  1  0  0  0  0  0  0  0  0  0
   18.0034   68.5676   -4.4591 C   0  0  2  0  0  0  0  0  0  0  0  0
   19.0931   70.2441   -3.2033 C   0  0  1  0  0  0  0  0  0  0  0  0
   17.6149   69.9331   -5.0001 C   0  0  2  0  0  0  0  0  0  0  0  0
   16.7894   68.2418   -2.1070 H   0  0  0  0  0  0  0  0  0  0  0  0
   17.2390   66.7854   -4.1606 H   0  0  0  0  0  0  0  0  0  0  0  0
   15.8925   71.2668   -6.7976 O   0  0  0  0  0  0  0  0  0  0  0  0
   18.6150   70.3203  -10.3943 O   0  0  0  0  0  0  0  0  0  0  0  0
   17.8494   70.0503   -6.4115 N   0  0  0  0  0  0  0  0  0  0  0  0
   17.2496   70.7932   -8.5874 N   0  0  0  0  0  0  0  0  0  0  0  0
   16.9214   70.7410   -7.2263 C   0  0  0  0  0  0  0  0  0  0  0  0
   18.9880   69.4869   -6.9745 C   0  0  0  0  0  0  0  0  0  0  0  0
   19.2873   69.5450   -8.2737 C   0  0  0  0  0  0  0  0  0  0  0  0
   18.3694   70.2478   -9.1940 C   0  0  0  0  0  0  0  0  0  0  0  0
   16.6175   71.2671   -9.1749 H   0  0  0  0  0  0  0  0  0  0  0  0
   23.1760   72.8335   -2.6400 O   0  0  0  0  0  0  0  0  0  0  0  0
   22.3992   74.2327   -2.8692 P   0  0  2  0  0  0  0  0  0  0  0  0
   21.7348   74.0512   -4.3341 O   0  0  0  0  0  0  0  0  0  0  0  0
   23.2680   75.4492   -2.7306 O   0  0  0  0  0  0  0  0  0  0  0  0
   21.1521   74.1806   -1.8472 O   0  0  0  0  0  0  0  0  0  0  0  0
   21.6266   75.3957    0.1295 O   0  0  0  0  0  0  0  0  0  0  0  0
   17.9381   73.7586    1.0142 O   0  0  0  0  0  0  0  0  0  0  0  0
   19.9821   72.1631   -0.3316 O   0  0  0  0  0  0  0  0  0  0  0  0
   18.1558   76.5712    0.3122 O   0  0  0  0  0  0  0  0  0  0  0  0
   18.9543   74.3024    0.1718 C   0  0  2  0  0  0  0  0  0  0  0  0
   20.2110   73.4362    0.2614 C   0  0  2  0  0  0  0  0  0  0  0  0
   19.2534   75.7251    0.6496 C   0  0  1  0  0  0  0  0  0  0  0  0
   21.3904   74.1088   -0.4426 C   0  0  1  0  0  0  0  0  0  0  0  0
   20.5155   76.2790   -0.0053 C   0  0  1  0  0  0  0  0  0  0  0  0
   17.7315   72.8544    0.7294 H   0  0  0  0  0  0  0  0  0  0  0  0
   19.2349   71.7308    0.1101 H   0  0  0  0  0  0  0  0  0  0  0  0
   17.3461   76.2296    0.7228 H   0  0  0  0  0  0  0  0  0  0  0  0
   20.3545   77.6467    1.8933 O   0  0  0  0  0  0  0  0  0  0  0  0
   21.8110   78.2966    0.2637 O   0  0  0  0  0  0  0  0  0  0  0  0
   20.9803   77.5126    0.6978 C   0  0  0  0  0  0  0  0  0  0  0  0
  1  4  1  0
  1 24  1  0
  1  2  1  6
  1  3  2  0
 25 28  1  0
 25 24  1  0
 25 26  1  6
 25 27  2  0
  6 11  1  0
  6 12  1  0
 29 36  1  0
 29 37  1  0
  9  7  1  1
  7 13  1  0
 10  8  1  1
  8 14  1  0
  4  5  1  0
 36 28  1  6
 33 30  1  1
 30 38  1  0
 34 31  1  6
 31 39  1  0
 35 32  1  6
 32 40  1  0
 41 43  1  0
 15 19  2  0
 42 43  2  0
 16 22  2  0
 12 17  1  6
 17 19  1  0
 17 20  1  0
 18 19  1  0
 18 22  1  0
 18 23  1  0
  9 10  1  0
  9 11  1  0
 10 12  1  0
 11  5  1  6
 33 34  1  0
 33 35  1  0
 34 36  1  0
 35 37  1  0
 37 43  1  1
 20 21  2  0
 21 22  1  0
M  CHG  3   2  -1  26  -1  41  -1
M  END
>  <COMPND>  (108) 
    udp_gluA.pdb 

>  <AUTHOR>  (108) 
    GENERATED BY OPEN BABEL 3.1.1

>  <MASTER>  (108) 
        0    0    0    0    0    0    0    0   56    0   56    0

>  <minimizedAffinity>  (108) 
-7.36853

>  <CNNscore>  (108) 
0.4328169227

>  <CNNaffinity>  (108) 
4.3502035141

>  <CNN_VS>  (108) 
1.8828417063

>  <CNNaffinity_variance>  (108) 
0.0535123535

$$$$
109
     RDKit          3D

 43 45  0  0  0  0  0  0  0  0999 V2000
   19.2309   76.3734   -5.1321 P   0  0  2  0  0  0  0  0  0  0  0  0
   18.2072   77.3692   -4.3710 O   0  0  0  0  0  0  0  0  0  0  0  0
   20.5434   76.9891   -5.5195 O   0  0  0  0  0  0  0  0  0  0  0  0
   18.3522   75.7686   -6.3487 O   0  0  0  0  0  0  0  0  0  0  0  0
   17.7836   74.4809   -6.1971 C   0  0  0  0  0  0  0  0  0  0  0  0
   18.6541   72.3749   -6.9617 O   0  0  0  0  0  0  0  0  0  0  0  0
   17.3795   73.0171   -9.5989 O   0  0  0  0  0  0  0  0  0  0  0  0
   15.6079   71.2644   -8.4920 O   0  0  0  0  0  0  0  0  0  0  0  0
   16.9171   73.3022   -8.2785 C   0  0  1  0  0  0  0  0  0  0  0  0
   16.4027   72.0400   -7.6194 C   0  0  2  0  0  0  0  0  0  0  0  0
   18.1280   73.6395   -7.4193 C   0  0  1  0  0  0  0  0  0  0  0  0
   17.6930   71.3408   -7.2268 C   0  0  2  0  0  0  0  0  0  0  0  0
   16.6234   72.7987  -10.1665 H   0  0  0  0  0  0  0  0  0  0  0  0
   14.7985   71.7527   -8.7120 H   0  0  0  0  0  0  0  0  0  0  0  0
   19.4028   69.2031   -6.5315 O   0  0  0  0  0  0  0  0  0  0  0  0
   17.0173   68.3039   -2.6915 O   0  0  0  0  0  0  0  0  0  0  0  0
   17.5418   70.5313   -6.0509 N   0  0  0  0  0  0  0  0  0  0  0  0
   18.2125   68.7566   -4.6202 N   0  0  0  0  0  0  0  0  0  0  0  0
   18.4552   69.4816   -5.7943 C   0  0  0  0  0  0  0  0  0  0  0  0
   16.4998   70.7812   -5.1661 C   0  0  0  0  0  0  0  0  0  0  0  0
   16.2813   70.0816   -4.0510 C   0  0  0  0  0  0  0  0  0  0  0  0
   17.1895   68.9671   -3.7098 C   0  0  0  0  0  0  0  0  0  0  0  0
   18.8340   68.0195   -4.4213 H   0  0  0  0  0  0  0  0  0  0  0  0
   19.3479   75.1246   -4.1125 O   0  0  0  0  0  0  0  0  0  0  0  0
   19.2919   75.0637   -2.4979 P   0  0  2  0  0  0  0  0  0  0  0  0
   17.7281   74.7776   -2.1926 O   0  0  0  0  0  0  0  0  0  0  0  0
   19.8421   76.2829   -1.8163 O   0  0  0  0  0  0  0  0  0  0  0  0
   20.0401   73.6870   -2.1141 O   0  0  0  0  0  0  0  0  0  0  0  0
   21.1904   72.3150   -3.6644 O   0  0  0  0  0  0  0  0  0  0  0  0
   20.2624   69.6144   -0.6788 O   0  0  0  0  0  0  0  0  0  0  0  0
   18.2978   71.5942   -1.5479 O   0  0  0  0  0  0  0  0  0  0  0  0
   22.9749   70.6273   -0.9386 O   0  0  0  0  0  0  0  0  0  0  0  0
   20.5970   70.8909   -1.2234 C   0  0  2  0  0  0  0  0  0  0  0  0
   19.5208   71.3196   -2.2213 C   0  0  2  0  0  0  0  0  0  0  0  0
   21.9522   70.7660   -1.9232 C   0  0  1  0  0  0  0  0  0  0  0  0
   19.9555   72.5665   -2.9927 C   0  0  1  0  0  0  0  0  0  0  0  0
   22.2563   71.9969   -2.7723 C   0  0  1  0  0  0  0  0  0  0  0  0
   19.4045   69.6694   -0.2290 H   0  0  0  0  0  0  0  0  0  0  0  0
   18.0162   70.8073   -1.0560 H   0  0  0  0  0  0  0  0  0  0  0  0
   22.7931   69.8475   -0.3912 H   0  0  0  0  0  0  0  0  0  0  0  0
   24.0783   70.6234   -3.3155 O   0  0  0  0  0  0  0  0  0  0  0  0
   23.6906   72.4193   -4.6659 O   0  0  0  0  0  0  0  0  0  0  0  0
   23.4004   71.7343   -3.6966 C   0  0  0  0  0  0  0  0  0  0  0  0
  1  4  1  0
  1 24  1  0
  1  2  1  1
  1  3  2  0
 25 28  1  0
 25 24  1  0
 25 26  1  6
 25 27  2  0
  6 11  1  0
  6 12  1  0
 29 36  1  0
 29 37  1  0
  9  7  1  6
  7 13  1  0
 10  8  1  6
  8 14  1  0
  4  5  1  0
 36 28  1  1
 33 30  1  6
 30 38  1  0
 34 31  1  1
 31 39  1  0
 35 32  1  1
 32 40  1  0
 41 43  1  0
 15 19  2  0
 42 43  2  0
 16 22  2  0
 12 17  1  1
 17 19  1  0
 17 20  1  0
 18 19  1  0
 18 22  1  0
 18 23  1  0
  9 10  1  0
  9 11  1  0
 10 12  1  0
 11  5  1  1
 33 34  1  0
 33 35  1  0
 34 36  1  0
 35 37  1  0
 37 43  1  6
 20 21  2  0
 21 22  1  0
M  CHG  3   2  -1  26  -1  41  -1
M  END
>  <COMPND>  (109) 
    udp_gluA.pdb 

>  <AUTHOR>  (109) 
    GENERATED BY OPEN BABEL 3.1.1

>  <MASTER>  (109) 
        0    0    0    0    0    0    0    0   56    0   56    0

>  <minimizedAffinity>  (109) 
-7.13011

>  <CNNscore>  (109) 
0.4285614789

>  <CNNaffinity>  (109) 
4.0794668198

>  <CNN_VS>  (109) 
1.7483023405

>  <CNNaffinity_variance>  (109) 
0.8515889049

$$$$
110
     RDKit          3D

 43 45  0  0  0  0  0  0  0  0999 V2000
   22.4808   73.3701   -6.6211 P   0  0  2  0  0  0  0  0  0  0  0  0
   22.6568   74.5636   -7.6997 O   0  0  0  0  0  0  0  0  0  0  0  0
   23.7566   72.8900   -5.9937 O   0  0  0  0  0  0  0  0  0  0  0  0
   21.6243   72.2511   -7.4161 O   0  0  0  0  0  0  0  0  0  0  0  0
   20.2852   72.0173   -7.0204 C   0  0  0  0  0  0  0  0  0  0  0  0
   19.3521   69.8024   -7.0535 O   0  0  0  0  0  0  0  0  0  0  0  0
   18.2299   70.5165   -9.7409 O   0  0  0  0  0  0  0  0  0  0  0  0
   16.0741   70.8119   -8.0974 O   0  0  0  0  0  0  0  0  0  0  0  0
   18.3976   71.3371   -8.5847 C   0  0  1  0  0  0  0  0  0  0  0  0
   17.3594   70.9884   -7.5393 C   0  0  2  0  0  0  0  0  0  0  0  0
   19.6922   70.9230   -7.8985 C   0  0  1  0  0  0  0  0  0  0  0  0
   17.9226   69.7060   -6.9510 C   0  0  2  0  0  0  0  0  0  0  0  0
   17.4090   70.7626  -10.1962 H   0  0  0  0  0  0  0  0  0  0  0  0
   15.7595   71.6563   -8.4581 H   0  0  0  0  0  0  0  0  0  0  0  0
   17.7331   71.8088   -5.0751 O   0  0  0  0  0  0  0  0  0  0  0  0
   16.5387   68.9222   -1.6862 O   0  0  0  0  0  0  0  0  0  0  0  0
   17.5641   69.5321   -5.5718 N   0  0  0  0  0  0  0  0  0  0  0  0
   17.1394   70.3690   -3.3888 N   0  0  0  0  0  0  0  0  0  0  0  0
   17.4978   70.6546   -4.7128 C   0  0  0  0  0  0  0  0  0  0  0  0
   17.2812   68.2623   -5.0835 C   0  0  0  0  0  0  0  0  0  0  0  0
   16.9409   68.0058   -3.8189 C   0  0  0  0  0  0  0  0  0  0  0  0
   16.8496   69.1232   -2.8563 C   0  0  0  0  0  0  0  0  0  0  0  0
   17.0886   71.1343   -2.7714 H   0  0  0  0  0  0  0  0  0  0  0  0
   21.4053   73.9784   -5.5790 O   0  0  0  0  0  0  0  0  0  0  0  0
   21.5331   74.3307   -4.0064 P   0  0  2  0  0  0  0  0  0  0  0  0
   20.2316   75.2517   -3.7267 O   0  0  0  0  0  0  0  0  0  0  0  0
   22.8365   74.9692   -3.6223 O   0  0  0  0  0  0  0  0  0  0  0  0
   21.2192   72.9415   -3.2488 O   0  0  0  0  0  0  0  0  0  0  0  0
   21.0420   73.4949   -0.9529 O   0  0  0  0  0  0  0  0  0  0  0  0
   20.1451   69.4622   -0.9172 O   0  0  0  0  0  0  0  0  0  0  0  0
   22.3248   70.4799   -2.5748 O   0  0  0  0  0  0  0  0  0  0  0  0
   18.0261   71.4310   -0.6261 O   0  0  0  0  0  0  0  0  0  0  0  0
   20.1917   70.7821   -1.4592 C   0  0  2  0  0  0  0  0  0  0  0  0
   21.6470   71.2355   -1.5777 C   0  0  2  0  0  0  0  0  0  0  0  0
   19.4209   71.7082   -0.5158 C   0  0  1  0  0  0  0  0  0  0  0  0
   21.7301   72.7201   -1.9356 C   0  0  1  0  0  0  0  0  0  0  0  0
   19.6553   73.1759   -0.8613 C   0  0  1  0  0  0  0  0  0  0  0  0
   20.6287   68.8559   -1.5001 H   0  0  0  0  0  0  0  0  0  0  0  0
   22.2758   69.5368   -2.3543 H   0  0  0  0  0  0  0  0  0  0  0  0
   17.8633   70.4998   -0.4089 H   0  0  0  0  0  0  0  0  0  0  0  0
   17.8465   73.9083    0.4400 O   0  0  0  0  0  0  0  0  0  0  0  0
   19.8864   74.8248    0.8849 O   0  0  0  0  0  0  0  0  0  0  0  0
   19.1791   74.0633    0.2423 C   0  0  0  0  0  0  0  0  0  0  0  0
  1  4  1  0
  1 24  1  0
  1  2  1  6
  1  3  2  0
 25 28  1  0
 25 24  1  0
 25 26  1  1
 25 27  2  0
  6 11  1  0
  6 12  1  0
 29 36  1  0
 29 37  1  0
  9  7  1  6
  7 13  1  0
 10  8  1  6
  8 14  1  0
  4  5  1  0
 36 28  1  6
 33 30  1  1
 30 38  1  0
 34 31  1  6
 31 39  1  0
 35 32  1  6
 32 40  1  0
 41 43  1  0
 15 19  2  0
 42 43  2  0
 16 22  2  0
 12 17  1  1
 17 19  1  0
 17 20  1  0
 18 19  1  0
 18 22  1  0
 18 23  1  0
  9 10  1  0
  9 11  1  0
 10 12  1  0
 11  5  1  1
 33 34  1  0
 33 35  1  0
 34 36  1  0
 35 37  1  0
 37 43  1  1
 20 21  2  0
 21 22  1  0
M  CHG  3   2  -1  26  -1  41  -1
M  END
>  <COMPND>  (110) 
    udp_gluA.pdb 

>  <AUTHOR>  (110) 
    GENERATED BY OPEN BABEL 3.1.1

>  <MASTER>  (110) 
        0    0    0    0    0    0    0    0   56    0   56    0

>  <minimizedAffinity>  (110) 
-7.43259

>  <CNNscore>  (110) 
0.4064980745

>  <CNNaffinity>  (110) 
4.2564454079

>  <CNN_VS>  (110) 
1.7302368879

>  <CNNaffinity_variance>  (110) 
0.4238247871

$$$$
111
     RDKit          3D

 43 45  0  0  0  0  0  0  0  0999 V2000
   21.0349   71.0678   -1.2885 P   0  0  2  0  0  0  0  0  0  0  0  0
   22.4499   70.7104   -0.5893 O   0  0  0  0  0  0  0  0  0  0  0  0
   19.9968   71.6339   -0.3646 O   0  0  0  0  0  0  0  0  0  0  0  0
   20.6245   69.7031   -2.0547 O   0  0  0  0  0  0  0  0  0  0  0  0
   20.0028   69.8006   -3.3230 C   0  0  0  0  0  0  0  0  0  0  0  0
   17.9726   70.6929   -4.2502 O   0  0  0  0  0  0  0  0  0  0  0  0
   16.5275   68.8105   -2.4173 O   0  0  0  0  0  0  0  0  0  0  0  0
   16.4112   67.5152   -4.8140 O   0  0  0  0  0  0  0  0  0  0  0  0
   17.7568   68.6231   -3.1188 C   0  0  1  0  0  0  0  0  0  0  0  0
   17.4905   68.3986   -4.5922 C   0  0  2  0  0  0  0  0  0  0  0  0
   18.4997   69.9522   -3.1282 C   0  0  1  0  0  0  0  0  0  0  0  0
   17.2018   69.8084   -5.0790 C   0  0  2  0  0  0  0  0  0  0  0  0
   16.0351   67.9746   -2.3981 H   0  0  0  0  0  0  0  0  0  0  0  0
   16.6443   66.6315   -4.4874 H   0  0  0  0  0  0  0  0  0  0  0  0
   15.6586   71.2215   -6.9758 O   0  0  0  0  0  0  0  0  0  0  0  0
   18.7572   70.4938  -10.3095 O   0  0  0  0  0  0  0  0  0  0  0  0
   17.5816   70.0034   -6.4496 N   0  0  0  0  0  0  0  0  0  0  0  0
   17.2029   70.8569   -8.6346 N   0  0  0  0  0  0  0  0  0  0  0  0
   16.7344   70.7286   -7.3204 C   0  0  0  0  0  0  0  0  0  0  0  0
   18.7811   69.4811   -6.9180 C   0  0  0  0  0  0  0  0  0  0  0  0
   19.2143   69.6117   -8.1734 C   0  0  0  0  0  0  0  0  0  0  0  0
   18.3881   70.3547   -9.1473 C   0  0  0  0  0  0  0  0  0  0  0  0
   16.6292   71.3560   -9.2600 H   0  0  0  0  0  0  0  0  0  0  0  0
   21.4658   72.0487   -2.4989 O   0  0  0  0  0  0  0  0  0  0  0  0
   21.8710   73.6137   -2.5039 P   0  0  2  0  0  0  0  0  0  0  0  0
   23.3900   73.6043   -1.9444 O   0  0  0  0  0  0  0  0  0  0  0  0
   20.9329   74.4952   -1.7312 O   0  0  0  0  0  0  0  0  0  0  0  0
   22.0145   73.9944   -4.0649 O   0  0  0  0  0  0  0  0  0  0  0  0
   20.3787   72.9466   -5.4196 O   0  0  0  0  0  0  0  0  0  0  0  0
   22.8305   74.6841   -8.2546 O   0  0  0  0  0  0  0  0  0  0  0  0
   23.9776   73.3452   -5.9253 O   0  0  0  0  0  0  0  0  0  0  0  0
   20.2508   75.8708   -7.6321 O   0  0  0  0  0  0  0  0  0  0  0  0
   22.1757   74.5712   -6.9911 C   0  0  2  0  0  0  0  0  0  0  0  0
   22.6080   73.2753   -6.3047 C   0  0  2  0  0  0  0  0  0  0  0  0
   20.6658   74.5636   -7.2401 C   0  0  1  0  0  0  0  0  0  0  0  0
   21.7597   73.0057   -5.0610 C   0  0  1  0  0  0  0  0  0  0  0  0
   19.8962   74.1636   -5.9846 C   0  0  1  0  0  0  0  0  0  0  0  0
   23.7915   74.6909   -8.1215 H   0  0  0  0  0  0  0  0  0  0  0  0
   24.5216   73.5163   -6.7096 H   0  0  0  0  0  0  0  0  0  0  0  0
   20.7333   76.1375   -8.4302 H   0  0  0  0  0  0  0  0  0  0  0  0
   18.3256   73.6438   -7.6474 O   0  0  0  0  0  0  0  0  0  0  0  0
   17.5673   73.7597   -5.5001 O   0  0  0  0  0  0  0  0  0  0  0  0
   18.4751   73.8403   -6.3140 C   0  0  0  0  0  0  0  0  0  0  0  0
  1  4  1  0
  1 24  1  0
  1  2  1  1
  1  3  2  0
 25 28  1  0
 25 24  1  0
 25 26  1  1
 25 27  2  0
  6 11  1  0
  6 12  1  0
 29 36  1  0
 29 37  1  0
  9  7  1  1
  7 13  1  0
 10  8  1  1
  8 14  1  0
  4  5  1  0
 36 28  1  1
 33 30  1  6
 30 38  1  0
 34 31  1  1
 31 39  1  0
 35 32  1  1
 32 40  1  0
 41 43  1  0
 15 19  2  0
 42 43  2  0
 16 22  2  0
 12 17  1  6
 17 19  1  0
 17 20  1  0
 18 19  1  0
 18 22  1  0
 18 23  1  0
  9 10  1  0
  9 11  1  0
 10 12  1  0
 11  5  1  6
 33 34  1  0
 33 35  1  0
 34 36  1  0
 35 37  1  0
 37 43  1  6
 20 21  2  0
 21 22  1  0
M  CHG  3   2  -1  26  -1  41  -1
M  END
>  <COMPND>  (111) 
    udp_gluA.pdb 

>  <AUTHOR>  (111) 
    GENERATED BY OPEN BABEL 3.1.1

>  <MASTER>  (111) 
        0    0    0    0    0    0    0    0   56    0   56    0

>  <minimizedAffinity>  (111) 
-7.35919

>  <CNNscore>  (111) 
0.3991784155

>  <CNNaffinity>  (111) 
4.1418166161

>  <CNN_VS>  (111) 
1.6533237696

>  <CNNaffinity_variance>  (111) 
0.7489681840

$$$$
112
     RDKit          3D

 43 45  0  0  0  0  0  0  0  0999 V2000
   22.2236   71.2366   -2.2971 P   0  0  2  0  0  0  0  0  0  0  0  0
   23.6477   70.6683   -2.8145 O   0  0  0  0  0  0  0  0  0  0  0  0
   21.7780   70.7105   -0.9642 O   0  0  0  0  0  0  0  0  0  0  0  0
   21.2200   70.9552   -3.5347 O   0  0  0  0  0  0  0  0  0  0  0  0
   20.5021   69.7351   -3.5591 C   0  0  0  0  0  0  0  0  0  0  0  0
   18.4675   70.7618   -4.3232 O   0  0  0  0  0  0  0  0  0  0  0  0
   17.0638   69.0539   -2.2974 O   0  0  0  0  0  0  0  0  0  0  0  0
   16.6175   67.7057   -4.6253 O   0  0  0  0  0  0  0  0  0  0  0  0
   18.2017   68.7485   -3.1038 C   0  0  1  0  0  0  0  0  0  0  0  0
   17.7784   68.5051   -4.5369 C   0  0  2  0  0  0  0  0  0  0  0  0
   19.0410   70.0127   -3.2299 C   0  0  1  0  0  0  0  0  0  0  0  0
   17.5544   69.9194   -5.0442 C   0  0  2  0  0  0  0  0  0  0  0  0
   16.5122   68.2611   -2.2025 H   0  0  0  0  0  0  0  0  0  0  0  0
   16.8117   66.8155   -4.2907 H   0  0  0  0  0  0  0  0  0  0  0  0
   15.9121   71.3411   -6.8493 O   0  0  0  0  0  0  0  0  0  0  0  0
   18.6499   70.3340  -10.4178 O   0  0  0  0  0  0  0  0  0  0  0  0
   17.8145   70.0449   -6.4504 N   0  0  0  0  0  0  0  0  0  0  0  0
   17.2767   70.8373   -8.6251 N   0  0  0  0  0  0  0  0  0  0  0  0
   16.9263   70.7810   -7.2697 C   0  0  0  0  0  0  0  0  0  0  0  0
   18.9389   69.4446   -7.0040 C   0  0  0  0  0  0  0  0  0  0  0  0
   19.2598   69.5071   -8.2978 C   0  0  0  0  0  0  0  0  0  0  0  0
   18.3837   70.2563   -9.2223 C   0  0  0  0  0  0  0  0  0  0  0  0
   16.6723   71.3425   -9.2156 H   0  0  0  0  0  0  0  0  0  0  0  0
   22.4300   72.8388   -2.3537 O   0  0  0  0  0  0  0  0  0  0  0  0
   21.4359   74.0209   -2.8314 P   0  0  2  0  0  0  0  0  0  0  0  0
   21.6745   75.1755   -1.7222 O   0  0  0  0  0  0  0  0  0  0  0  0
   20.0039   73.5969   -2.9845 O   0  0  0  0  0  0  0  0  0  0  0  0
   22.1092   74.6032   -4.1767 O   0  0  0  0  0  0  0  0  0  0  0  0
   21.2326   74.8090   -6.3672 O   0  0  0  0  0  0  0  0  0  0  0  0
   25.2304   74.0946   -7.1254 O   0  0  0  0  0  0  0  0  0  0  0  0
   23.8264   72.5960   -5.0476 O   0  0  0  0  0  0  0  0  0  0  0  0
   24.1471   76.7768   -7.4138 O   0  0  0  0  0  0  0  0  0  0  0  0
   24.1121   74.5949   -6.3925 C   0  0  2  0  0  0  0  0  0  0  0  0
   23.1933   73.4356   -6.0062 C   0  0  2  0  0  0  0  0  0  0  0  0
   23.3675   75.5892   -7.2863 C   0  0  1  0  0  0  0  0  0  0  0  0
   21.8766   73.9516   -5.4241 C   0  0  1  0  0  0  0  0  0  0  0  0
   22.0090   75.9584   -6.6976 C   0  0  1  0  0  0  0  0  0  0  0  0
   25.7190   73.4605   -6.5772 H   0  0  0  0  0  0  0  0  0  0  0  0
   24.6627   72.2652   -5.4102 H   0  0  0  0  0  0  0  0  0  0  0  0
   25.0145   76.5556   -7.7873 H   0  0  0  0  0  0  0  0  0  0  0  0
   19.8754   76.7303   -7.2923 O   0  0  0  0  0  0  0  0  0  0  0  0
   21.5663   77.0997   -8.7767 O   0  0  0  0  0  0  0  0  0  0  0  0
   21.1624   76.6546   -7.7129 C   0  0  0  0  0  0  0  0  0  0  0  0
  1  4  1  0
  1 24  1  0
  1  2  1  6
  1  3  2  0
 25 28  1  0
 25 24  1  0
 25 26  1  1
 25 27  2  0
  6 11  1  0
  6 12  1  0
 29 36  1  0
 29 37  1  0
  9  7  1  1
  7 13  1  0
 10  8  1  1
  8 14  1  0
  4  5  1  0
 36 28  1  1
 33 30  1  6
 30 38  1  0
 34 31  1  1
 31 39  1  0
 35 32  1  1
 32 40  1  0
 41 43  1  0
 15 19  2  0
 42 43  2  0
 16 22  2  0
 12 17  1  6
 17 19  1  0
 17 20  1  0
 18 19  1  0
 18 22  1  0
 18 23  1  0
  9 10  1  0
  9 11  1  0
 10 12  1  0
 11  5  1  6
 33 34  1  0
 33 35  1  0
 34 36  1  0
 35 37  1  0
 37 43  1  6
 20 21  2  0
 21 22  1  0
M  CHG  3   2  -1  26  -1  41  -1
M  END
>  <COMPND>  (112) 
    udp_gluA.pdb 

>  <AUTHOR>  (112) 
    GENERATED BY OPEN BABEL 3.1.1

>  <MASTER>  (112) 
        0    0    0    0    0    0    0    0   56    0   56    0

>  <minimizedAffinity>  (112) 
-7.69422

>  <CNNscore>  (112) 
0.3982958496

>  <CNNaffinity>  (112) 
4.3012795448

>  <CNN_VS>  (112) 
1.7131817341

>  <CNNaffinity_variance>  (112) 
0.4675064981

$$$$
113
     RDKit          3D

 43 45  0  0  0  0  0  0  0  0999 V2000
   17.1820   68.8892   -4.0887 P   0  0  2  0  0  0  0  0  0  0  0  0
   16.7176   67.3421   -4.1879 O   0  0  0  0  0  0  0  0  0  0  0  0
   16.0630   69.8784   -3.9431 O   0  0  0  0  0  0  0  0  0  0  0  0
   18.1356   69.0922   -5.3799 O   0  0  0  0  0  0  0  0  0  0  0  0
   18.1130   70.3404   -6.0476 C   0  0  0  0  0  0  0  0  0  0  0  0
   16.1445   70.5211   -7.4150 O   0  0  0  0  0  0  0  0  0  0  0  0
   17.9981   70.4275   -9.7702 O   0  0  0  0  0  0  0  0  0  0  0  0
   17.4348   73.0874   -9.5605 O   0  0  0  0  0  0  0  0  0  0  0  0
   18.1894   71.0371   -8.4933 C   0  0  1  0  0  0  0  0  0  0  0  0
   17.3656   72.3030   -8.3881 C   0  0  2  0  0  0  0  0  0  0  0  0
   17.5385   70.1453   -7.4448 C   0  0  1  0  0  0  0  0  0  0  0  0
   15.9726   71.7526   -8.1340 C   0  0  2  0  0  0  0  0  0  0  0  0
   18.4056   70.9793  -10.4565 H   0  0  0  0  0  0  0  0  0  0  0  0
   18.3411   73.4144   -9.6777 H   0  0  0  0  0  0  0  0  0  0  0  0
   14.1898   73.6596   -9.2118 O   0  0  0  0  0  0  0  0  0  0  0  0
   12.9300   75.1176   -5.0248 O   0  0  0  0  0  0  0  0  0  0  0  0
   15.1664   72.6435   -7.3484 N   0  0  0  0  0  0  0  0  0  0  0  0
   13.5648   74.3846   -7.1254 N   0  0  0  0  0  0  0  0  0  0  0  0
   14.3033   73.5642   -7.9883 C   0  0  0  0  0  0  0  0  0  0  0  0
   15.2337   72.5987   -5.9612 C   0  0  0  0  0  0  0  0  0  0  0  0
   14.5235   73.3870   -5.1519 C   0  0  0  0  0  0  0  0  0  0  0  0
   13.5983   74.3776   -5.7404 C   0  0  0  0  0  0  0  0  0  0  0  0
   12.9585   75.0352   -7.5478 H   0  0  0  0  0  0  0  0  0  0  0  0
   18.2321   68.8748   -2.8600 O   0  0  0  0  0  0  0  0  0  0  0  0
   18.8826   70.0833   -2.0055 P   0  0  2  0  0  0  0  0  0  0  0  0
   19.8246   69.3151   -0.9364 O   0  0  0  0  0  0  0  0  0  0  0  0
   17.8773   71.0121   -1.3887 O   0  0  0  0  0  0  0  0  0  0  0  0
   19.9152   70.7934   -3.0214 O   0  0  0  0  0  0  0  0  0  0  0  0
   21.4445   71.9672   -1.6458 O   0  0  0  0  0  0  0  0  0  0  0  0
   23.0118   72.6391   -5.4088 O   0  0  0  0  0  0  0  0  0  0  0  0
   20.1285   72.7772   -4.9592 O   0  0  0  0  0  0  0  0  0  0  0  0
   24.2727   70.7221   -3.6239 O   0  0  0  0  0  0  0  0  0  0  0  0
   22.3219   71.9065   -4.3962 C   0  0  2  0  0  0  0  0  0  0  0  0
   21.1049   72.7041   -3.9268 C   0  0  2  0  0  0  0  0  0  0  0  0
   23.2906   71.6799   -3.2334 C   0  0  1  0  0  0  0  0  0  0  0  0
   20.4746   72.0629   -2.6896 C   0  0  1  0  0  0  0  0  0  0  0  0
   22.5645   71.1578   -1.9970 C   0  0  1  0  0  0  0  0  0  0  0  0
   22.4157   72.7951   -6.1582 H   0  0  0  0  0  0  0  0  0  0  0  0
   20.5217   73.1828   -5.7474 H   0  0  0  0  0  0  0  0  0  0  0  0
   24.7421   71.0423   -4.4100 H   0  0  0  0  0  0  0  0  0  0  0  0
   24.4283   70.3265   -0.8409 O   0  0  0  0  0  0  0  0  0  0  0  0
   23.2908   72.0516    0.1231 O   0  0  0  0  0  0  0  0  0  0  0  0
   23.4386   71.2522   -0.7890 C   0  0  0  0  0  0  0  0  0  0  0  0
  1  4  1  0
  1 24  1  0
  1  2  1  6
  1  3  2  0
 25 28  1  0
 25 24  1  0
 25 26  1  1
 25 27  2  0
  6 11  1  0
  6 12  1  0
 29 36  1  0
 29 37  1  0
  9  7  1  6
  7 13  1  0
 10  8  1  6
  8 14  1  0
  4  5  1  0
 36 28  1  6
 33 30  1  6
 30 38  1  0
 34 31  1  6
 31 39  1  0
 35 32  1  6
 32 40  1  0
 41 43  1  0
 15 19  2  0
 42 43  2  0
 16 22  2  0
 12 17  1  1
 17 19  1  0
 17 20  1  0
 18 19  1  0
 18 22  1  0
 18 23  1  0
  9 10  1  0
  9 11  1  0
 10 12  1  0
 11  5  1  1
 33 34  1  0
 33 35  1  0
 34 36  1  0
 35 37  1  0
 37 43  1  1
 20 21  2  0
 21 22  1  0
M  CHG  3   2  -1  26  -1  41  -1
M  END
>  <COMPND>  (113) 
    udp_gluA.pdb 

>  <AUTHOR>  (113) 
    GENERATED BY OPEN BABEL 3.1.1

>  <MASTER>  (113) 
        0    0    0    0    0    0    0    0   56    0   56    0

>  <minimizedAffinity>  (113) 
-8.27843

>  <CNNscore>  (113) 
0.3931570947

>  <CNNaffinity>  (113) 
4.2113108635

>  <CNN_VS>  (113) 
1.6557067633

>  <CNNaffinity_variance>  (113) 
0.1574667394

$$$$
114
     RDKit          3D

 43 45  0  0  0  0  0  0  0  0999 V2000
   22.4737   71.3345   -1.9990 P   0  0  2  0  0  0  0  0  0  0  0  0
   23.6234   70.6980   -2.9434 O   0  0  0  0  0  0  0  0  0  0  0  0
   22.1542   70.5399   -0.7668 O   0  0  0  0  0  0  0  0  0  0  0  0
   21.2371   71.5897   -3.0108 O   0  0  0  0  0  0  0  0  0  0  0  0
   20.5936   70.4686   -3.5883 C   0  0  0  0  0  0  0  0  0  0  0  0
   18.4180   71.0955   -4.3955 O   0  0  0  0  0  0  0  0  0  0  0  0
   17.3136   69.3258   -2.2414 O   0  0  0  0  0  0  0  0  0  0  0  0
   17.0910   67.7656   -4.4668 O   0  0  0  0  0  0  0  0  0  0  0  0
   18.4853   69.1547   -3.0391 C   0  0  1  0  0  0  0  0  0  0  0  0
   18.1060   68.7474   -4.4471 C   0  0  2  0  0  0  0  0  0  0  0  0
   19.1070   70.5268   -3.2610 C   0  0  1  0  0  0  0  0  0  0  0  0
   17.6538   70.0681   -5.0465 C   0  0  2  0  0  0  0  0  0  0  0  0
   16.8988   68.4623   -2.0862 H   0  0  0  0  0  0  0  0  0  0  0  0
   17.4281   66.9441   -4.0750 H   0  0  0  0  0  0  0  0  0  0  0  0
   16.0286   71.4914   -6.8656 O   0  0  0  0  0  0  0  0  0  0  0  0
   18.6502   70.2623  -10.4517 O   0  0  0  0  0  0  0  0  0  0  0  0
   17.8887   70.1369   -6.4610 N   0  0  0  0  0  0  0  0  0  0  0  0
   17.3353   70.8770   -8.6501 N   0  0  0  0  0  0  0  0  0  0  0  0
   17.0117   70.8791   -7.2869 C   0  0  0  0  0  0  0  0  0  0  0  0
   18.9776   69.4758   -7.0162 C   0  0  0  0  0  0  0  0  0  0  0  0
   19.2732   69.4832   -8.3175 C   0  0  0  0  0  0  0  0  0  0  0  0
   18.4066   70.2345   -9.2492 C   0  0  0  0  0  0  0  0  0  0  0  0
   16.7380   71.3854   -9.2453 H   0  0  0  0  0  0  0  0  0  0  0  0
   23.0238   72.8274   -1.7137 O   0  0  0  0  0  0  0  0  0  0  0  0
   22.6414   74.2463   -2.3876 P   0  0  2  0  0  0  0  0  0  0  0  0
   23.8786   75.2013   -1.9660 O   0  0  0  0  0  0  0  0  0  0  0  0
   21.2918   74.7720   -1.9923 O   0  0  0  0  0  0  0  0  0  0  0  0
   22.8304   74.0109   -3.9723 O   0  0  0  0  0  0  0  0  0  0  0  0
   23.1627   75.4383   -5.8328 O   0  0  0  0  0  0  0  0  0  0  0  0
   20.5813   72.6137   -7.3906 O   0  0  0  0  0  0  0  0  0  0  0  0
   20.1671   73.6745   -4.7003 O   0  0  0  0  0  0  0  0  0  0  0  0
   23.4042   72.5497   -8.0822 O   0  0  0  0  0  0  0  0  0  0  0  0
   21.6279   73.0998   -6.5501 C   0  0  2  0  0  0  0  0  0  0  0  0
   21.0860   74.2079   -5.6468 C   0  0  2  0  0  0  0  0  0  0  0  0
   22.7421   73.6423   -7.4481 C   0  0  1  0  0  0  0  0  0  0  0  0
   22.2212   74.9082   -4.8988 C   0  0  1  0  0  0  0  0  0  0  0  0
   23.7690   74.4349   -6.6444 C   0  0  1  0  0  0  0  0  0  0  0  0
   19.8618   72.2639   -6.8418 H   0  0  0  0  0  0  0  0  0  0  0  0
   19.4442   73.2284   -5.1680 H   0  0  0  0  0  0  0  0  0  0  0  0
   22.7615   72.0369   -8.5969 H   0  0  0  0  0  0  0  0  0  0  0  0
   24.8643   76.4691   -7.0493 O   0  0  0  0  0  0  0  0  0  0  0  0
   25.1320   74.8173   -8.5982 O   0  0  0  0  0  0  0  0  0  0  0  0
   24.6552   75.2264   -7.5502 C   0  0  0  0  0  0  0  0  0  0  0  0
  1  4  1  0
  1 24  1  0
  1  2  1  6
  1  3  2  0
 25 28  1  0
 25 24  1  0
 25 26  1  1
 25 27  2  0
  6 11  1  0
  6 12  1  0
 29 36  1  0
 29 37  1  0
  9  7  1  1
  7 13  1  0
 10  8  1  1
  8 14  1  0
  4  5  1  0
 36 28  1  1
 33 30  1  6
 30 38  1  0
 34 31  1  1
 31 39  1  0
 35 32  1  1
 32 40  1  0
 41 43  1  0
 15 19  2  0
 42 43  2  0
 16 22  2  0
 12 17  1  6
 17 19  1  0
 17 20  1  0
 18 19  1  0
 18 22  1  0
 18 23  1  0
  9 10  1  0
  9 11  1  0
 10 12  1  0
 11  5  1  6
 33 34  1  0
 33 35  1  0
 34 36  1  0
 35 37  1  0
 37 43  1  6
 20 21  2  0
 21 22  1  0
M  CHG  3   2  -1  26  -1  41  -1
M  END
>  <COMPND>  (114) 
    udp_gluA.pdb 

>  <AUTHOR>  (114) 
    GENERATED BY OPEN BABEL 3.1.1

>  <MASTER>  (114) 
        0    0    0    0    0    0    0    0   56    0   56    0

>  <minimizedAffinity>  (114) 
-7.95785

>  <CNNscore>  (114) 
0.3317494690

>  <CNNaffinity>  (114) 
4.1058969498

>  <CNN_VS>  (114) 
1.3621290922

>  <CNNaffinity_variance>  (114) 
0.5748085976

$$$$
115
     RDKit          3D

 43 45  0  0  0  0  0  0  0  0999 V2000
   23.0142   71.7521   -3.5926 P   0  0  2  0  0  0  0  0  0  0  0  0
   23.5577   72.5063   -4.9173 O   0  0  0  0  0  0  0  0  0  0  0  0
   23.7919   70.5323   -3.1940 O   0  0  0  0  0  0  0  0  0  0  0  0
   21.4430   71.5151   -3.8977 O   0  0  0  0  0  0  0  0  0  0  0  0
   20.8885   70.2388   -3.6364 C   0  0  0  0  0  0  0  0  0  0  0  0
   18.7074   71.0198   -4.2768 O   0  0  0  0  0  0  0  0  0  0  0  0
   17.6510   69.3478   -2.0230 O   0  0  0  0  0  0  0  0  0  0  0  0
   17.1395   67.7964   -4.2064 O   0  0  0  0  0  0  0  0  0  0  0  0
   18.7402   69.0867   -2.9084 C   0  0  1  0  0  0  0  0  0  0  0  0
   18.2218   68.7009   -4.2776 C   0  0  2  0  0  0  0  0  0  0  0  0
   19.4408   70.4080   -3.1938 C   0  0  1  0  0  0  0  0  0  0  0  0
   17.8211   70.0480   -4.8542 C   0  0  2  0  0  0  0  0  0  0  0  0
   17.1880   68.5181   -1.8261 H   0  0  0  0  0  0  0  0  0  0  0  0
   17.4457   66.9544   -3.8332 H   0  0  0  0  0  0  0  0  0  0  0  0
   15.9828   71.3210   -6.5796 O   0  0  0  0  0  0  0  0  0  0  0  0
   18.4067   70.1527  -10.3217 O   0  0  0  0  0  0  0  0  0  0  0  0
   17.9475   70.0918   -6.2835 N   0  0  0  0  0  0  0  0  0  0  0  0
   17.1913   70.7370   -8.4418 N   0  0  0  0  0  0  0  0  0  0  0  0
   16.9685   70.7573   -7.0587 C   0  0  0  0  0  0  0  0  0  0  0  0
   19.0317   69.4820   -6.9029 C   0  0  0  0  0  0  0  0  0  0  0  0
   19.2305   69.4712   -8.2224 C   0  0  0  0  0  0  0  0  0  0  0  0
   18.2537   70.1434   -9.1040 C   0  0  0  0  0  0  0  0  0  0  0  0
   16.5220   71.1921   -9.0024 H   0  0  0  0  0  0  0  0  0  0  0  0
   22.9958   72.9303   -2.4861 O   0  0  0  0  0  0  0  0  0  0  0  0
   22.9656   72.8690   -0.8708 P   0  0  2  0  0  0  0  0  0  0  0  0
   23.8818   74.1305   -0.4356 O   0  0  0  0  0  0  0  0  0  0  0  0
   23.4093   71.5550   -0.2961 O   0  0  0  0  0  0  0  0  0  0  0  0
   21.4629   73.3005   -0.4729 O   0  0  0  0  0  0  0  0  0  0  0  0
   19.5510   73.7343   -1.8016 O   0  0  0  0  0  0  0  0  0  0  0  0
   19.0645   76.4418    1.2807 O   0  0  0  0  0  0  0  0  0  0  0  0
   21.6961   76.0152    0.0859 O   0  0  0  0  0  0  0  0  0  0  0  0
   17.4572   74.0210    1.1977 O   0  0  0  0  0  0  0  0  0  0  0  0
   19.4814   75.2184    0.6744 C   0  0  2  0  0  0  0  0  0  0  0  0
   20.4753   75.5163   -0.4484 C   0  0  2  0  0  0  0  0  0  0  0  0
   18.2396   74.5208    0.1149 C   0  0  1  0  0  0  0  0  0  0  0  0
   20.7675   74.2589   -1.2683 C   0  0  1  0  0  0  0  0  0  0  0  0
   18.6176   73.3540   -0.7930 C   0  0  1  0  0  0  0  0  0  0  0  0
   19.8373   76.9028    1.6435 H   0  0  0  0  0  0  0  0  0  0  0  0
   21.5180   76.8130    0.6076 H   0  0  0  0  0  0  0  0  0  0  0  0
   17.2100   74.7537    1.7833 H   0  0  0  0  0  0  0  0  0  0  0  0
   17.3325   73.5958   -2.7402 O   0  0  0  0  0  0  0  0  0  0  0  0
   16.6684   72.0063   -1.2464 O   0  0  0  0  0  0  0  0  0  0  0  0
   17.4371   72.8938   -1.5847 C   0  0  0  0  0  0  0  0  0  0  0  0
  1  4  1  0
  1 24  1  0
  1  2  1  6
  1  3  2  0
 25 28  1  0
 25 24  1  0
 25 26  1  1
 25 27  2  0
  6 11  1  0
  6 12  1  0
 29 36  1  0
 29 37  1  0
  9  7  1  1
  7 13  1  0
 10  8  1  1
  8 14  1  0
  4  5  1  0
 36 28  1  1
 33 30  1  6
 30 38  1  0
 34 31  1  1
 31 39  1  0
 35 32  1  1
 32 40  1  0
 41 43  1  0
 15 19  2  0
 42 43  2  0
 16 22  2  0
 12 17  1  6
 17 19  1  0
 17 20  1  0
 18 19  1  0
 18 22  1  0
 18 23  1  0
  9 10  1  0
  9 11  1  0
 10 12  1  0
 11  5  1  6
 33 34  1  0
 33 35  1  0
 34 36  1  0
 35 37  1  0
 37 43  1  6
 20 21  2  0
 21 22  1  0
M  CHG  3   2  -1  26  -1  41  -1
M  END
>  <COMPND>  (115) 
    udp_gluA.pdb 

>  <AUTHOR>  (115) 
    GENERATED BY OPEN BABEL 3.1.1

>  <MASTER>  (115) 
        0    0    0    0    0    0    0    0   56    0   56    0

>  <minimizedAffinity>  (115) 
-7.59728

>  <CNNscore>  (115) 
0.3264360726

>  <CNNaffinity>  (115) 
4.1778030396

>  <CNN_VS>  (115) 
1.3637856245

>  <CNNaffinity_variance>  (115) 
0.1770724058

$$$$
116
     RDKit          3D

 43 45  0  0  0  0  0  0  0  0999 V2000
   17.8823   75.0797   -3.3772 P   0  0  2  0  0  0  0  0  0  0  0  0
   16.4145   75.6235   -2.9666 O   0  0  0  0  0  0  0  0  0  0  0  0
   19.0280   75.7858   -2.7135 O   0  0  0  0  0  0  0  0  0  0  0  0
   17.8736   75.1211   -4.9946 O   0  0  0  0  0  0  0  0  0  0  0  0
   17.0519   74.2015   -5.6901 C   0  0  0  0  0  0  0  0  0  0  0  0
   18.5608   72.4304   -6.2935 O   0  0  0  0  0  0  0  0  0  0  0  0
   17.7897   72.9934   -9.1360 O   0  0  0  0  0  0  0  0  0  0  0  0
   16.3016   70.7873   -8.5407 O   0  0  0  0  0  0  0  0  0  0  0  0
   16.9886   73.0450   -7.9553 C   0  0  1  0  0  0  0  0  0  0  0  0
   16.6661   71.6444   -7.4792 C   0  0  2  0  0  0  0  0  0  0  0  0
   17.8562   73.5749   -6.8218 C   0  0  1  0  0  0  0  0  0  0  0  0
   17.9673   71.2301   -6.8135 C   0  0  2  0  0  0  0  0  0  0  0  0
   17.2567   72.6577   -9.8743 H   0  0  0  0  0  0  0  0  0  0  0  0
   15.4673   71.0929   -8.9312 H   0  0  0  0  0  0  0  0  0  0  0  0
   20.0440   69.9450   -5.3949 O   0  0  0  0  0  0  0  0  0  0  0  0
   17.0581   67.7039   -2.6920 O   0  0  0  0  0  0  0  0  0  0  0  0
   17.7608   70.3060   -5.7344 N   0  0  0  0  0  0  0  0  0  0  0  0
   18.5548   68.8293   -4.0507 N   0  0  0  0  0  0  0  0  0  0  0  0
   18.8725   69.7155   -5.0883 C   0  0  0  0  0  0  0  0  0  0  0  0
   16.4698   69.9946   -5.3255 C   0  0  0  0  0  0  0  0  0  0  0  0
   16.1827   69.1480   -4.3347 C   0  0  0  0  0  0  0  0  0  0  0  0
   17.2871   68.4874   -3.6084 C   0  0  0  0  0  0  0  0  0  0  0  0
   19.3123   68.4041   -3.5872 H   0  0  0  0  0  0  0  0  0  0  0  0
   17.7872   73.4989   -3.0536 O   0  0  0  0  0  0  0  0  0  0  0  0
   18.5969   72.5811   -1.9973 P   0  0  2  0  0  0  0  0  0  0  0  0
   17.7448   71.2049   -1.9739 O   0  0  0  0  0  0  0  0  0  0  0  0
   18.7859   73.2145   -0.6493 O   0  0  0  0  0  0  0  0  0  0  0  0
   19.9685   72.1979   -2.7552 O   0  0  0  0  0  0  0  0  0  0  0  0
   21.5336   73.5927   -1.6534 O   0  0  0  0  0  0  0  0  0  0  0  0
   24.0081   71.1584   -3.8936 O   0  0  0  0  0  0  0  0  0  0  0  0
   21.5462   72.2291   -5.0456 O   0  0  0  0  0  0  0  0  0  0  0  0
   23.7398   70.7278   -1.0312 O   0  0  0  0  0  0  0  0  0  0  0  0
   22.8452   71.4894   -3.1347 C   0  0  2  0  0  0  0  0  0  0  0  0
   22.1079   72.6478   -3.8071 C   0  0  2  0  0  0  0  0  0  0  0  0
   23.2965   71.8905   -1.7285 C   0  0  1  0  0  0  0  0  0  0  0  0
   20.9910   73.1806   -2.9085 C   0  0  1  0  0  0  0  0  0  0  0  0
   22.1574   72.5284   -0.9385 C   0  0  1  0  0  0  0  0  0  0  0  0
   23.7459   70.9003   -4.7913 H   0  0  0  0  0  0  0  0  0  0  0  0
   22.2493   71.8896   -5.6207 H   0  0  0  0  0  0  0  0  0  0  0  0
   24.4648   70.3122   -1.5236 H   0  0  0  0  0  0  0  0  0  0  0  0
   22.6635   74.5536    0.1310 O   0  0  0  0  0  0  0  0  0  0  0  0
   23.0601   72.6344    1.2965 O   0  0  0  0  0  0  0  0  0  0  0  0
   22.6767   73.2067    0.2873 C   0  0  0  0  0  0  0  0  0  0  0  0
  1  4  1  0
  1 24  1  0
  1  2  1  1
  1  3  2  0
 25 28  1  0
 25 24  1  0
 25 26  1  1
 25 27  2  0
  6 11  1  0
  6 12  1  0
 29 36  1  0
 29 37  1  0
  9  7  1  6
  7 13  1  0
 10  8  1  6
  8 14  1  0
  4  5  1  0
 36 28  1  1
 33 30  1  6
 30 38  1  0
 34 31  1  6
 31 39  1  0
 35 32  1  1
 32 40  1  0
 41 43  1  0
 15 19  2  0
 42 43  2  0
 16 22  2  0
 12 17  1  1
 17 19  1  0
 17 20  1  0
 18 19  1  0
 18 22  1  0
 18 23  1  0
  9 10  1  0
  9 11  1  0
 10 12  1  0
 11  5  1  1
 33 34  1  0
 33 35  1  0
 34 36  1  0
 35 37  1  0
 37 43  1  1
 20 21  2  0
 21 22  1  0
M  CHG  3   2  -1  26  -1  41  -1
M  END
>  <COMPND>  (116) 
    udp_gluA.pdb 

>  <AUTHOR>  (116) 
    GENERATED BY OPEN BABEL 3.1.1

>  <MASTER>  (116) 
        0    0    0    0    0    0    0    0   56    0   56    0

>  <minimizedAffinity>  (116) 
-6.71386

>  <CNNscore>  (116) 
0.3166674078

>  <CNNaffinity>  (116) 
3.9661629200

>  <CNN_VS>  (116) 
1.2559545040

>  <CNNaffinity_variance>  (116) 
0.4994043410

$$$$
117
     RDKit          3D

 43 45  0  0  0  0  0  0  0  0999 V2000
   19.3353   73.4448   -3.0783 P   0  0  2  0  0  0  0  0  0  0  0  0
   18.2124   74.3850   -2.3899 O   0  0  0  0  0  0  0  0  0  0  0  0
   19.2884   73.3959   -4.5774 O   0  0  0  0  0  0  0  0  0  0  0  0
   19.1680   72.0235   -2.3234 O   0  0  0  0  0  0  0  0  0  0  0  0
   18.9882   70.8585   -3.1076 C   0  0  0  0  0  0  0  0  0  0  0  0
   16.9878   70.9792   -4.4347 O   0  0  0  0  0  0  0  0  0  0  0  0
   15.8876   68.8484   -2.6345 O   0  0  0  0  0  0  0  0  0  0  0  0
   16.6207   67.4370   -4.8495 O   0  0  0  0  0  0  0  0  0  0  0  0
   17.2211   69.0283   -3.1118 C   0  0  1  0  0  0  0  0  0  0  0  0
   17.3127   68.6363   -4.5714 C   0  0  2  0  0  0  0  0  0  0  0  0
   17.5034   70.5235   -3.1651 C   0  0  1  0  0  0  0  0  0  0  0  0
   16.6953   69.8411   -5.2608 C   0  0  2  0  0  0  0  0  0  0  0  0
   15.6841   67.9006   -2.5918 H   0  0  0  0  0  0  0  0  0  0  0  0
   17.0524   66.7002   -4.3883 H   0  0  0  0  0  0  0  0  0  0  0  0
   15.4356   71.3671   -7.2760 O   0  0  0  0  0  0  0  0  0  0  0  0
   18.8791   70.6219  -10.2476 O   0  0  0  0  0  0  0  0  0  0  0  0
   17.2405   70.0621   -6.5703 N   0  0  0  0  0  0  0  0  0  0  0  0
   17.1514   70.9936   -8.7544 N   0  0  0  0  0  0  0  0  0  0  0  0
   16.5271   70.8443   -7.5090 C   0  0  0  0  0  0  0  0  0  0  0  0
   18.4683   69.5090   -6.9128 C   0  0  0  0  0  0  0  0  0  0  0  0
   19.0508   69.6602   -8.1039 C   0  0  0  0  0  0  0  0  0  0  0  0
   18.3710   70.4625   -9.1419 C   0  0  0  0  0  0  0  0  0  0  0  0
   16.6728   71.5324   -9.4252 H   0  0  0  0  0  0  0  0  0  0  0  0
   20.7160   74.0210   -2.4663 O   0  0  0  0  0  0  0  0  0  0  0  0
   22.2567   73.6882   -2.8254 P   0  0  2  0  0  0  0  0  0  0  0  0
   22.3027   72.0704   -2.7941 O   0  0  0  0  0  0  0  0  0  0  0  0
   23.2565   74.3528   -1.9239 O   0  0  0  0  0  0  0  0  0  0  0  0
   22.4049   74.0697   -4.3858 O   0  0  0  0  0  0  0  0  0  0  0  0
   24.1209   75.3814   -5.3574 O   0  0  0  0  0  0  0  0  0  0  0  0
   20.9955   76.0052   -7.9862 O   0  0  0  0  0  0  0  0  0  0  0  0
   20.5248   75.9899   -5.1030 O   0  0  0  0  0  0  0  0  0  0  0  0
   23.1820   74.2327   -8.7132 O   0  0  0  0  0  0  0  0  0  0  0  0
   21.7831   75.2710   -7.0488 C   0  0  2  0  0  0  0  0  0  0  0  0
   21.8107   76.0124   -5.7120 C   0  0  2  0  0  0  0  0  0  0  0  0
   23.1985   75.1449   -7.6167 C   0  0  1  0  0  0  0  0  0  0  0  0
   22.8250   75.3813   -4.7572 C   0  0  1  0  0  0  0  0  0  0  0  0
   24.1763   74.6268   -6.5660 C   0  0  1  0  0  0  0  0  0  0  0  0
   20.0914   76.0981   -7.6465 H   0  0  0  0  0  0  0  0  0  0  0  0
   19.8761   76.3886   -5.7035 H   0  0  0  0  0  0  0  0  0  0  0  0
   22.5633   74.5508   -9.3891 H   0  0  0  0  0  0  0  0  0  0  0  0
   26.3928   75.0988   -5.9611 O   0  0  0  0  0  0  0  0  0  0  0  0
   25.9740   74.7298   -8.1719 O   0  0  0  0  0  0  0  0  0  0  0  0
   25.5883   74.8169   -7.0158 C   0  0  0  0  0  0  0  0  0  0  0  0
  1  4  1  0
  1 24  1  0
  1  2  1  1
  1  3  2  0
 25 28  1  0
 25 24  1  0
 25 26  1  6
 25 27  2  0
  6 11  1  0
  6 12  1  0
 29 36  1  0
 29 37  1  0
  9  7  1  6
  7 13  1  0
 10  8  1  1
  8 14  1  0
  4  5  1  0
 36 28  1  6
 33 30  1  6
 30 38  1  0
 34 31  1  1
 31 39  1  0
 35 32  1  6
 32 40  1  0
 41 43  1  0
 15 19  2  0
 42 43  2  0
 16 22  2  0
 12 17  1  6
 17 19  1  0
 17 20  1  0
 18 19  1  0
 18 22  1  0
 18 23  1  0
  9 10  1  0
  9 11  1  0
 10 12  1  0
 11  5  1  6
 33 34  1  0
 33 35  1  0
 34 36  1  0
 35 37  1  0
 37 43  1  6
 20 21  2  0
 21 22  1  0
M  CHG  3   2  -1  26  -1  41  -1
M  END
>  <COMPND>  (117) 
    udp_gluA.pdb 

>  <AUTHOR>  (117) 
    GENERATED BY OPEN BABEL 3.1.1

>  <MASTER>  (117) 
        0    0    0    0    0    0    0    0   56    0   56    0

>  <minimizedAffinity>  (117) 
-6.82877

>  <CNNscore>  (117) 
0.3020641804

>  <CNNaffinity>  (117) 
4.1812257767

>  <CNN_VS>  (117) 
1.2629985809

>  <CNNaffinity_variance>  (117) 
0.1466546357

$$$$
118
     RDKit          3D

 43 45  0  0  0  0  0  0  0  0999 V2000
   18.8821   69.9932   -2.6473 P   0  0  2  0  0  0  0  0  0  0  0  0
   18.8915   69.1604   -1.2598 O   0  0  0  0  0  0  0  0  0  0  0  0
   19.2870   69.2081   -3.8603 O   0  0  0  0  0  0  0  0  0  0  0  0
   19.7812   71.2987   -2.3230 O   0  0  0  0  0  0  0  0  0  0  0  0
   19.9507   71.6841   -0.9712 C   0  0  0  0  0  0  0  0  0  0  0  0
   22.1847   71.6929   -1.8582 O   0  0  0  0  0  0  0  0  0  0  0  0
   23.0769   72.4638    0.8988 O   0  0  0  0  0  0  0  0  0  0  0  0
   23.1231   74.8446   -0.4299 O   0  0  0  0  0  0  0  0  0  0  0  0
   21.8944   72.8411    0.1932 C   0  0  1  0  0  0  0  0  0  0  0  0
   22.2267   73.8521   -0.8837 C   0  0  2  0  0  0  0  0  0  0  0  0
   21.4337   71.6430   -0.6258 C   0  0  1  0  0  0  0  0  0  0  0  0
   22.8275   72.9728   -1.9672 C   0  0  2  0  0  0  0  0  0  0  0  0
   23.3903   73.2134    1.4294 H   0  0  0  0  0  0  0  0  0  0  0  0
   22.6939   75.3776    0.2583 H   0  0  0  0  0  0  0  0  0  0  0  0
   23.9278   71.8783   -4.3268 O   0  0  0  0  0  0  0  0  0  0  0  0
   21.9020   75.0665   -6.9679 O   0  0  0  0  0  0  0  0  0  0  0  0
   22.6039   73.4970   -3.2848 N   0  0  0  0  0  0  0  0  0  0  0  0
   22.9186   73.4678   -5.6399 N   0  0  0  0  0  0  0  0  0  0  0  0
   23.2037   72.8726   -4.4040 C   0  0  0  0  0  0  0  0  0  0  0  0
   21.7977   74.6153   -3.4588 C   0  0  0  0  0  0  0  0  0  0  0  0
   21.5351   75.1712   -4.6432 C   0  0  0  0  0  0  0  0  0  0  0  0
   22.1236   74.5804   -5.8630 C   0  0  0  0  0  0  0  0  0  0  0  0
   23.3266   73.0520   -6.4335 H   0  0  0  0  0  0  0  0  0  0  0  0
   17.3810   70.5904   -2.7019 O   0  0  0  0  0  0  0  0  0  0  0  0
   16.0516   70.0535   -3.4491 P   0  0  2  0  0  0  0  0  0  0  0  0
   14.9005   71.0656   -2.9285 O   0  0  0  0  0  0  0  0  0  0  0  0
   15.7537   68.6019   -3.2085 O   0  0  0  0  0  0  0  0  0  0  0  0
   16.2671   70.4448   -4.9992 O   0  0  0  0  0  0  0  0  0  0  0  0
   18.1307   71.6290   -5.8558 O   0  0  0  0  0  0  0  0  0  0  0  0
   15.2310   72.4714   -8.6754 O   0  0  0  0  0  0  0  0  0  0  0  0
   14.5785   72.4936   -5.8279 O   0  0  0  0  0  0  0  0  0  0  0  0
   17.3269   70.5460   -9.2680 O   0  0  0  0  0  0  0  0  0  0  0  0
   15.9031   71.6840   -7.6924 C   0  0  2  0  0  0  0  0  0  0  0  0
   15.8987   72.4233   -6.3541 C   0  0  2  0  0  0  0  0  0  0  0  0
   17.3390   71.4561   -8.1699 C   0  0  1  0  0  0  0  0  0  0  0  0
   16.8027   71.7224   -5.3390 C   0  0  1  0  0  0  0  0  0  0  0  0
   18.2086   70.8708   -7.0609 C   0  0  1  0  0  0  0  0  0  0  0  0
   14.3162   72.6292   -8.3934 H   0  0  0  0  0  0  0  0  0  0  0  0
   13.9994   72.9370   -6.4670 H   0  0  0  0  0  0  0  0  0  0  0  0
   16.7766   70.9066   -9.9808 H   0  0  0  0  0  0  0  0  0  0  0  0
   20.0066   69.9439   -8.2481 O   0  0  0  0  0  0  0  0  0  0  0  0
   20.4249   71.8237   -7.0272 O   0  0  0  0  0  0  0  0  0  0  0  0
   19.6563   70.9587   -7.4197 C   0  0  0  0  0  0  0  0  0  0  0  0
  1  4  1  0
  1 24  1  0
  1  2  1  1
  1  3  2  0
 25 28  1  0
 25 24  1  0
 25 26  1  1
 25 27  2  0
  6 11  1  0
  6 12  1  0
 29 36  1  0
 29 37  1  0
  9  7  1  6
  7 13  1  0
 10  8  1  1
  8 14  1  0
  4  5  1  0
 36 28  1  6
 33 30  1  6
 30 38  1  0
 34 31  1  1
 31 39  1  0
 35 32  1  6
 32 40  1  0
 41 43  1  0
 15 19  2  0
 42 43  2  0
 16 22  2  0
 12 17  1  6
 17 19  1  0
 17 20  1  0
 18 19  1  0
 18 22  1  0
 18 23  1  0
  9 10  1  0
  9 11  1  0
 10 12  1  0
 11  5  1  6
 33 34  1  0
 33 35  1  0
 34 36  1  0
 35 37  1  0
 37 43  1  6
 20 21  2  0
 21 22  1  0
M  CHG  3   2  -1  26  -1  41  -1
M  END
>  <COMPND>  (118) 
    udp_gluA.pdb 

>  <AUTHOR>  (118) 
    GENERATED BY OPEN BABEL 3.1.1

>  <MASTER>  (118) 
        0    0    0    0    0    0    0    0   56    0   56    0

>  <minimizedAffinity>  (118) 
-7.54066

>  <CNNscore>  (118) 
0.2905769944

>  <CNNaffinity>  (118) 
4.0163612366

>  <CNN_VS>  (118) 
1.1670621634

>  <CNNaffinity_variance>  (118) 
0.4011765420

$$$$
119
     RDKit          3D

 43 45  0  0  0  0  0  0  0  0999 V2000
   19.8137   74.4886   -0.1758 P   0  0  2  0  0  0  0  0  0  0  0  0
   19.1878   74.8699    1.2670 O   0  0  0  0  0  0  0  0  0  0  0  0
   19.9163   75.6307   -1.1437 O   0  0  0  0  0  0  0  0  0  0  0  0
   18.9223   73.2303   -0.6657 O   0  0  0  0  0  0  0  0  0  0  0  0
   17.5198   73.3945   -0.7685 C   0  0  0  0  0  0  0  0  0  0  0  0
   17.5329   72.7513   -3.0844 O   0  0  0  0  0  0  0  0  0  0  0  0
   15.5325   74.9437   -3.5123 O   0  0  0  0  0  0  0  0  0  0  0  0
   13.9680   72.7108   -3.4635 O   0  0  0  0  0  0  0  0  0  0  0  0
   15.6845   74.0639   -2.3981 C   0  0  1  0  0  0  0  0  0  0  0  0
   15.1881   72.6783   -2.7529 C   0  0  2  0  0  0  0  0  0  0  0  0
   17.1734   73.8248   -2.1880 C   0  0  1  0  0  0  0  0  0  0  0  0
   16.3362   72.1359   -3.5870 C   0  0  2  0  0  0  0  0  0  0  0  0
   14.5891   75.1113   -3.6660 H   0  0  0  0  0  0  0  0  0  0  0  0
   13.2690   73.0632   -2.8897 H   0  0  0  0  0  0  0  0  0  0  0  0
   16.1924   70.3552   -5.7744 O   0  0  0  0  0  0  0  0  0  0  0  0
   16.8423   66.6846   -3.0636 O   0  0  0  0  0  0  0  0  0  0  0  0
   16.4645   70.7100   -3.4812 N   0  0  0  0  0  0  0  0  0  0  0  0
   16.5152   68.5286   -4.4220 N   0  0  0  0  0  0  0  0  0  0  0  0
   16.3767   69.9054   -4.6418 C   0  0  0  0  0  0  0  0  0  0  0  0
   16.6763   70.1229   -2.2397 C   0  0  0  0  0  0  0  0  0  0  0  0
   16.8064   68.8090   -2.0460 C   0  0  0  0  0  0  0  0  0  0  0  0
   16.7263   67.8980   -3.2066 C   0  0  0  0  0  0  0  0  0  0  0  0
   16.4556   67.9479   -5.2148 H   0  0  0  0  0  0  0  0  0  0  0  0
   21.2264   73.8046    0.2108 O   0  0  0  0  0  0  0  0  0  0  0  0
   22.4372   73.2718   -0.7185 P   0  0  2  0  0  0  0  0  0  0  0  0
   22.8340   71.8591   -0.0350 O   0  0  0  0  0  0  0  0  0  0  0  0
   23.5800   74.2360   -0.8537 O   0  0  0  0  0  0  0  0  0  0  0  0
   21.7349   72.8663   -2.1131 O   0  0  0  0  0  0  0  0  0  0  0  0
   21.7548   70.8290   -3.3207 O   0  0  0  0  0  0  0  0  0  0  0  0
   21.5953   73.6120   -6.3698 O   0  0  0  0  0  0  0  0  0  0  0  0
   23.3338   74.0421   -4.0617 O   0  0  0  0  0  0  0  0  0  0  0  0
   19.2163   72.1092   -5.6401 O   0  0  0  0  0  0  0  0  0  0  0  0
   21.3394   73.0924   -5.0650 C   0  0  2  0  0  0  0  0  0  0  0  0
   22.6650   72.8205   -4.3534 C   0  0  2  0  0  0  0  0  0  0  0  0
   20.5429   71.7950   -5.2205 C   0  0  1  0  0  0  0  0  0  0  0  0
   22.4388   72.0531   -3.0501 C   0  0  1  0  0  0  0  0  0  0  0  0
   20.4690   71.0256   -3.9048 C   0  0  1  0  0  0  0  0  0  0  0  0
   22.1007   74.4370   -6.2962 H   0  0  0  0  0  0  0  0  0  0  0  0
   23.4803   74.5344   -4.8843 H   0  0  0  0  0  0  0  0  0  0  0  0
   19.2492   72.5992   -6.4765 H   0  0  0  0  0  0  0  0  0  0  0  0
   20.0876   68.8970   -2.9963 O   0  0  0  0  0  0  0  0  0  0  0  0
   19.5581   69.2003   -5.1933 O   0  0  0  0  0  0  0  0  0  0  0  0
   19.9872   69.6298   -4.1329 C   0  0  0  0  0  0  0  0  0  0  0  0
  1  4  1  0
  1 24  1  0
  1  2  1  1
  1  3  2  0
 25 28  1  0
 25 24  1  0
 25 26  1  1
 25 27  2  0
  6 11  1  0
  6 12  1  0
 29 36  1  0
 29 37  1  0
  9  7  1  6
  7 13  1  0
 10  8  1  6
  8 14  1  0
  4  5  1  0
 36 28  1  1
 33 30  1  6
 30 38  1  0
 34 31  1  1
 31 39  1  0
 35 32  1  1
 32 40  1  0
 41 43  1  0
 15 19  2  0
 42 43  2  0
 16 22  2  0
 12 17  1  1
 17 19  1  0
 17 20  1  0
 18 19  1  0
 18 22  1  0
 18 23  1  0
  9 10  1  0
  9 11  1  0
 10 12  1  0
 11  5  1  1
 33 34  1  0
 33 35  1  0
 34 36  1  0
 35 37  1  0
 37 43  1  6
 20 21  2  0
 21 22  1  0
M  CHG  3   2  -1  26  -1  41  -1
M  END
>  <COMPND>  (119) 
    udp_gluA.pdb 

>  <AUTHOR>  (119) 
    GENERATED BY OPEN BABEL 3.1.1

>  <MASTER>  (119) 
        0    0    0    0    0    0    0    0   56    0   56    0

>  <minimizedAffinity>  (119) 
-6.07909

>  <CNNscore>  (119) 
0.2715905309

>  <CNNaffinity>  (119) 
3.8102047443

>  <CNN_VS>  (119) 
1.0348155499

>  <CNNaffinity_variance>  (119) 
0.3541643023

$$$$
120
     RDKit          3D

 43 45  0  0  0  0  0  0  0  0999 V2000
   18.1531   73.6526   -2.5041 P   0  0  2  0  0  0  0  0  0  0  0  0
   19.1561   74.6516   -1.7199 O   0  0  0  0  0  0  0  0  0  0  0  0
   16.6931   73.9077   -2.2693 O   0  0  0  0  0  0  0  0  0  0  0  0
   18.6820   72.1771   -2.1025 O   0  0  0  0  0  0  0  0  0  0  0  0
   18.5838   71.1397   -3.0609 C   0  0  0  0  0  0  0  0  0  0  0  0
   16.6601   71.1007   -4.5016 O   0  0  0  0  0  0  0  0  0  0  0  0
   15.5758   68.9739   -2.6871 O   0  0  0  0  0  0  0  0  0  0  0  0
   16.5125   67.5312   -4.8030 O   0  0  0  0  0  0  0  0  0  0  0  0
   16.9229   69.2128   -3.0954 C   0  0  1  0  0  0  0  0  0  0  0  0
   17.1204   68.7768   -4.5318 C   0  0  2  0  0  0  0  0  0  0  0  0
   17.1254   70.7189   -3.1889 C   0  0  1  0  0  0  0  0  0  0  0  0
   16.4789   69.9201   -5.2994 C   0  0  2  0  0  0  0  0  0  0  0  0
   15.4225   68.0180   -2.6203 H   0  0  0  0  0  0  0  0  0  0  0  0
   16.9565   66.8364   -4.2910 H   0  0  0  0  0  0  0  0  0  0  0  0
   15.3294   71.4448   -7.3804 O   0  0  0  0  0  0  0  0  0  0  0  0
   18.8986   70.6447  -10.1849 O   0  0  0  0  0  0  0  0  0  0  0  0
   17.0862   70.1266   -6.5837 N   0  0  0  0  0  0  0  0  0  0  0  0
   17.1077   71.0440   -8.7755 N   0  0  0  0  0  0  0  0  0  0  0  0
   16.4250   70.9095   -7.5594 C   0  0  0  0  0  0  0  0  0  0  0  0
   18.3228   69.5589   -6.8656 C   0  0  0  0  0  0  0  0  0  0  0  0
   18.9611   69.6961   -8.0294 C   0  0  0  0  0  0  0  0  0  0  0  0
   18.3383   70.4980   -9.1028 C   0  0  0  0  0  0  0  0  0  0  0  0
   16.6662   71.5830   -9.4712 H   0  0  0  0  0  0  0  0  0  0  0  0
   18.6235   73.8007   -4.0434 O   0  0  0  0  0  0  0  0  0  0  0  0
   20.0773   74.0984   -4.6851 P   0  0  2  0  0  0  0  0  0  0  0  0
   20.4447   75.5641   -4.1046 O   0  0  0  0  0  0  0  0  0  0  0  0
   20.1219   73.9972   -6.1823 O   0  0  0  0  0  0  0  0  0  0  0  0
   21.0777   73.0933   -3.9160 O   0  0  0  0  0  0  0  0  0  0  0  0
   22.2567   73.7148   -1.9583 O   0  0  0  0  0  0  0  0  0  0  0  0
   24.5281   70.5522   -3.3391 O   0  0  0  0  0  0  0  0  0  0  0  0
   23.4850   72.5494   -5.1986 O   0  0  0  0  0  0  0  0  0  0  0  0
   22.7529   70.1908   -1.0656 O   0  0  0  0  0  0  0  0  0  0  0  0
   23.3323   71.3016   -3.1236 C   0  0  2  0  0  0  0  0  0  0  0  0
   23.4637   72.6754   -3.7815 C   0  0  2  0  0  0  0  0  0  0  0  0
   23.1337   71.4514   -1.6136 C   0  0  1  0  0  0  0  0  0  0  0  0
   22.3037   73.5875   -3.3799 C   0  0  1  0  0  0  0  0  0  0  0  0
   22.0450   72.4714   -1.2933 C   0  0  1  0  0  0  0  0  0  0  0  0
   24.6749   70.4443   -4.2921 H   0  0  0  0  0  0  0  0  0  0  0  0
   24.2185   71.9717   -5.4604 H   0  0  0  0  0  0  0  0  0  0  0  0
   23.4374   69.5324   -1.2626 H   0  0  0  0  0  0  0  0  0  0  0  0
   21.0492   73.6747    0.4566 O   0  0  0  0  0  0  0  0  0  0  0  0
   22.9253   72.4777    0.9531 O   0  0  0  0  0  0  0  0  0  0  0  0
   22.0834   72.8525    0.1508 C   0  0  0  0  0  0  0  0  0  0  0  0
  1  4  1  0
  1 24  1  0
  1  2  1  1
  1  3  2  0
 25 28  1  0
 25 24  1  0
 25 26  1  6
 25 27  2  0
  6 11  1  0
  6 12  1  0
 29 36  1  0
 29 37  1  0
  9  7  1  6
  7 13  1  0
 10  8  1  1
  8 14  1  0
  4  5  1  0
 36 28  1  1
 33 30  1  1
 30 38  1  0
 34 31  1  6
 31 39  1  0
 35 32  1  6
 32 40  1  0
 41 43  1  0
 15 19  2  0
 42 43  2  0
 16 22  2  0
 12 17  1  6
 17 19  1  0
 17 20  1  0
 18 19  1  0
 18 22  1  0
 18 23  1  0
  9 10  1  0
  9 11  1  0
 10 12  1  0
 11  5  1  6
 33 34  1  0
 33 35  1  0
 34 36  1  0
 35 37  1  0
 37 43  1  1
 20 21  2  0
 21 22  1  0
M  CHG  3   2  -1  26  -1  41  -1
M  END
>  <COMPND>  (120) 
    udp_gluA.pdb 

>  <AUTHOR>  (120) 
    GENERATED BY OPEN BABEL 3.1.1

>  <MASTER>  (120) 
        0    0    0    0    0    0    0    0   56    0   56    0

>  <minimizedAffinity>  (120) 
-7.78738

>  <CNNscore>  (120) 
0.2610024214

>  <CNNaffinity>  (120) 
4.1041598320

>  <CNN_VS>  (120) 
1.0711956024

>  <CNNaffinity_variance>  (120) 
0.4279612601

$$$$
121
     RDKit          3D

 43 45  0  0  0  0  0  0  0  0999 V2000
   20.5336   70.5674   -1.6802 P   0  0  2  0  0  0  0  0  0  0  0  0
   20.2049   69.3690   -0.6435 O   0  0  0  0  0  0  0  0  0  0  0  0
   19.7388   71.8227   -1.4700 O   0  0  0  0  0  0  0  0  0  0  0  0
   20.3823   69.8752   -3.1348 O   0  0  0  0  0  0  0  0  0  0  0  0
   19.4824   68.7915   -3.2775 C   0  0  0  0  0  0  0  0  0  0  0  0
   17.7912   70.2628   -4.1452 O   0  0  0  0  0  0  0  0  0  0  0  0
   15.8295   68.6382   -2.5629 O   0  0  0  0  0  0  0  0  0  0  0  0
   15.5085   67.6646   -5.0898 O   0  0  0  0  0  0  0  0  0  0  0  0
   17.0048   68.2140   -3.2537 C   0  0  1  0  0  0  0  0  0  0  0  0
   16.7635   68.2150   -4.7483 C   0  0  2  0  0  0  0  0  0  0  0  0
   18.0584   69.3025   -3.1003 C   0  0  1  0  0  0  0  0  0  0  0  0
   16.8641   69.6935   -5.0830 C   0  0  2  0  0  0  0  0  0  0  0  0
   15.1418   67.9587   -2.6467 H   0  0  0  0  0  0  0  0  0  0  0  0
   15.4947   66.7223   -4.8574 H   0  0  0  0  0  0  0  0  0  0  0  0
   15.5432   71.2818   -7.0089 O   0  0  0  0  0  0  0  0  0  0  0  0
   18.8124   70.5003  -10.1624 O   0  0  0  0  0  0  0  0  0  0  0  0
   17.3479   69.9220   -6.4152 N   0  0  0  0  0  0  0  0  0  0  0  0
   17.1722   70.8902   -8.5780 N   0  0  0  0  0  0  0  0  0  0  0  0
   16.6080   70.7363   -7.3048 C   0  0  0  0  0  0  0  0  0  0  0  0
   18.5426   69.3446   -6.8278 C   0  0  0  0  0  0  0  0  0  0  0  0
   19.0678   69.5006   -8.0446 C   0  0  0  0  0  0  0  0  0  0  0  0
   18.3569   70.3357   -9.0348 C   0  0  0  0  0  0  0  0  0  0  0  0
   16.6741   71.4512   -9.2156 H   0  0  0  0  0  0  0  0  0  0  0  0
   22.1326   70.7495   -1.5291 O   0  0  0  0  0  0  0  0  0  0  0  0
   23.1800   71.6610   -2.3572 P   0  0  2  0  0  0  0  0  0  0  0  0
   24.3783   70.6282   -2.7005 O   0  0  0  0  0  0  0  0  0  0  0  0
   23.6208   72.9019   -1.6362 O   0  0  0  0  0  0  0  0  0  0  0  0
   22.4568   71.9309   -3.7738 O   0  0  0  0  0  0  0  0  0  0  0  0
   23.1193   74.0031   -4.7099 O   0  0  0  0  0  0  0  0  0  0  0  0
   20.1954   72.7799   -7.3599 O   0  0  0  0  0  0  0  0  0  0  0  0
   19.8176   72.4496   -4.4820 O   0  0  0  0  0  0  0  0  0  0  0  0
   23.0022   72.5820   -8.0906 O   0  0  0  0  0  0  0  0  0  0  0  0
   21.2611   72.6094   -6.4254 C   0  0  2  0  0  0  0  0  0  0  0  0
   20.8613   73.2112   -5.0780 C   0  0  2  0  0  0  0  0  0  0  0  0
   22.4960   73.3221   -6.9813 C   0  0  1  0  0  0  0  0  0  0  0  0
   22.0546   73.2543   -4.1224 C   0  0  1  0  0  0  0  0  0  0  0  0
   23.5948   73.4355   -5.9284 C   0  0  1  0  0  0  0  0  0  0  0  0
   19.3996   72.3352   -7.0278 H   0  0  0  0  0  0  0  0  0  0  0  0
   19.0573   72.4179   -5.0830 H   0  0  0  0  0  0  0  0  0  0  0  0
   22.3125   72.5024   -8.7679 H   0  0  0  0  0  0  0  0  0  0  0  0
   24.9497   75.2628   -5.3570 O   0  0  0  0  0  0  0  0  0  0  0  0
   25.1689   74.4248   -7.4662 O   0  0  0  0  0  0  0  0  0  0  0  0
   24.6467   74.4040   -6.3617 C   0  0  0  0  0  0  0  0  0  0  0  0
  1  4  1  0
  1 24  1  0
  1  2  1  1
  1  3  2  0
 25 28  1  0
 25 24  1  0
 25 26  1  6
 25 27  2  0
  6 11  1  0
  6 12  1  0
 29 36  1  0
 29 37  1  0
  9  7  1  1
  7 13  1  0
 10  8  1  1
  8 14  1  0
  4  5  1  0
 36 28  1  6
 33 30  1  6
 30 38  1  0
 34 31  1  1
 31 39  1  0
 35 32  1  6
 32 40  1  0
 41 43  1  0
 15 19  2  0
 42 43  2  0
 16 22  2  0
 12 17  1  6
 17 19  1  0
 17 20  1  0
 18 19  1  0
 18 22  1  0
 18 23  1  0
  9 10  1  0
  9 11  1  0
 10 12  1  0
 11  5  1  6
 33 34  1  0
 33 35  1  0
 34 36  1  0
 35 37  1  0
 37 43  1  6
 20 21  2  0
 21 22  1  0
M  CHG  3   2  -1  26  -1  41  -1
M  END
>  <COMPND>  (121) 
    udp_gluA.pdb 

>  <AUTHOR>  (121) 
    GENERATED BY OPEN BABEL 3.1.1

>  <MASTER>  (121) 
        0    0    0    0    0    0    0    0   56    0   56    0

>  <minimizedAffinity>  (121) 
-8.77146

>  <CNNscore>  (121) 
0.6365007162

>  <CNNaffinity>  (121) 
4.5060830116

>  <CNN_VS>  (121) 
2.8681249619

>  <CNNaffinity_variance>  (121) 
0.5319336057

$$$$
122
     RDKit          3D

 43 45  0  0  0  0  0  0  0  0999 V2000
   20.1386   70.7795   -1.3057 P   0  0  2  0  0  0  0  0  0  0  0  0
   20.2711   69.3032   -0.6560 O   0  0  0  0  0  0  0  0  0  0  0  0
   19.6147   71.8355   -0.3772 O   0  0  0  0  0  0  0  0  0  0  0  0
   19.2741   70.5356   -2.6515 O   0  0  0  0  0  0  0  0  0  0  0  0
   18.4702   71.5937   -3.1397 C   0  0  0  0  0  0  0  0  0  0  0  0
   16.5706   71.3868   -4.5980 O   0  0  0  0  0  0  0  0  0  0  0  0
   15.5411   69.3421   -2.6614 O   0  0  0  0  0  0  0  0  0  0  0  0
   16.5626   67.8022   -4.6667 O   0  0  0  0  0  0  0  0  0  0  0  0
   16.8841   69.6059   -3.0681 C   0  0  1  0  0  0  0  0  0  0  0  0
   17.1189   69.0854   -4.4703 C   0  0  2  0  0  0  0  0  0  0  0  0
   17.0308   71.1095   -3.2576 C   0  0  1  0  0  0  0  0  0  0  0  0
   16.4459   70.1507   -5.3189 C   0  0  2  0  0  0  0  0  0  0  0  0
   15.4231   68.3873   -2.5340 H   0  0  0  0  0  0  0  0  0  0  0  0
   17.0250   67.1599   -4.1049 H   0  0  0  0  0  0  0  0  0  0  0  0
   15.2935   71.5374   -7.4927 O   0  0  0  0  0  0  0  0  0  0  0  0
   18.9065   70.6470  -10.2125 O   0  0  0  0  0  0  0  0  0  0  0  0
   17.0637   70.2967   -6.6065 N   0  0  0  0  0  0  0  0  0  0  0  0
   17.0936   71.0917   -8.8455 N   0  0  0  0  0  0  0  0  0  0  0  0
   16.4000   71.0126   -7.6308 C   0  0  0  0  0  0  0  0  0  0  0  0
   18.3129   69.7362   -6.8440 C   0  0  0  0  0  0  0  0  0  0  0  0
   18.9616   69.8202   -8.0071 C   0  0  0  0  0  0  0  0  0  0  0  0
   18.3369   70.5504   -9.1296 C   0  0  0  0  0  0  0  0  0  0  0  0
   16.6506   71.5835   -9.5744 H   0  0  0  0  0  0  0  0  0  0  0  0
   21.6252   71.0604   -1.8746 O   0  0  0  0  0  0  0  0  0  0  0  0
   22.8747   71.8593   -1.2309 P   0  0  2  0  0  0  0  0  0  0  0  0
   24.1595   71.1413   -1.9047 O   0  0  0  0  0  0  0  0  0  0  0  0
   22.8900   71.8720    0.2703 O   0  0  0  0  0  0  0  0  0  0  0  0
   22.8210   73.3206   -1.9123 O   0  0  0  0  0  0  0  0  0  0  0  0
   24.0842   75.3238   -1.9365 O   0  0  0  0  0  0  0  0  0  0  0  0
   20.2561   76.7513   -1.3235 O   0  0  0  0  0  0  0  0  0  0  0  0
   21.1906   74.3675    0.0832 O   0  0  0  0  0  0  0  0  0  0  0  0
   21.5041   76.9977   -3.9374 O   0  0  0  0  0  0  0  0  0  0  0  0
   21.2485   75.8587   -1.8297 C   0  0  2  0  0  0  0  0  0  0  0  0
   22.0253   75.2436   -0.6653 C   0  0  2  0  0  0  0  0  0  0  0  0
   22.1890   76.6601   -2.7326 C   0  0  1  0  0  0  0  0  0  0  0  0
   23.2405   74.4639   -1.1695 C   0  0  1  0  0  0  0  0  0  0  0  0
   23.4368   75.8576   -3.0893 C   0  0  1  0  0  0  0  0  0  0  0  0
   19.6468   76.2641   -0.7466 H   0  0  0  0  0  0  0  0  0  0  0  0
   20.4173   74.8556    0.4060 H   0  0  0  0  0  0  0  0  0  0  0  0
   20.7076   77.5086   -3.7243 H   0  0  0  0  0  0  0  0  0  0  0  0
   24.2432   76.9519   -5.0009 O   0  0  0  0  0  0  0  0  0  0  0  0
   25.4302   77.2169   -3.0722 O   0  0  0  0  0  0  0  0  0  0  0  0
   24.4845   76.7420   -3.6831 C   0  0  0  0  0  0  0  0  0  0  0  0
  1  4  1  0
  1 24  1  0
  1  2  1  1
  1  3  2  0
 25 28  1  0
 25 24  1  0
 25 26  1  6
 25 27  2  0
  6 11  1  0
  6 12  1  0
 29 36  1  0
 29 37  1  0
  9  7  1  6
  7 13  1  0
 10  8  1  1
  8 14  1  0
  4  5  1  0
 36 28  1  6
 33 30  1  1
 30 38  1  0
 34 31  1  6
 31 39  1  0
 35 32  1  6
 32 40  1  0
 41 43  1  0
 15 19  2  0
 42 43  2  0
 16 22  2  0
 12 17  1  6
 17 19  1  0
 17 20  1  0
 18 19  1  0
 18 22  1  0
 18 23  1  0
  9 10  1  0
  9 11  1  0
 10 12  1  0
 11  5  1  6
 33 34  1  0
 33 35  1  0
 34 36  1  0
 35 37  1  0
 37 43  1  1
 20 21  2  0
 21 22  1  0
M  CHG  3   2  -1  26  -1  41  -1
M  END
>  <COMPND>  (122) 
    udp_gluA.pdb 

>  <AUTHOR>  (122) 
    GENERATED BY OPEN BABEL 3.1.1

>  <MASTER>  (122) 
        0    0    0    0    0    0    0    0   56    0   56    0

>  <minimizedAffinity>  (122) 
-7.20773

>  <CNNscore>  (122) 
0.5293652415

>  <CNNaffinity>  (122) 
4.5469598770

>  <CNN_VS>  (122) 
2.4070024490

>  <CNNaffinity_variance>  (122) 
0.0187557731

$$$$
123
     RDKit          3D

 43 45  0  0  0  0  0  0  0  0999 V2000
   21.9443   71.3624   -2.2474 P   0  0  2  0  0  0  0  0  0  0  0  0
   23.4547   71.4885   -2.8146 O   0  0  0  0  0  0  0  0  0  0  0  0
   21.7989   70.5191   -1.0147 O   0  0  0  0  0  0  0  0  0  0  0  0
   21.0856   70.8827   -3.5321 O   0  0  0  0  0  0  0  0  0  0  0  0
   20.4008   69.6455   -3.4640 C   0  0  0  0  0  0  0  0  0  0  0  0
   18.3749   70.6842   -4.2350 O   0  0  0  0  0  0  0  0  0  0  0  0
   16.9443   68.9146   -2.2822 O   0  0  0  0  0  0  0  0  0  0  0  0
   16.5451   67.6296   -4.6540 O   0  0  0  0  0  0  0  0  0  0  0  0
   18.0976   68.6367   -3.0767 C   0  0  1  0  0  0  0  0  0  0  0  0
   17.7004   68.4313   -4.5232 C   0  0  2  0  0  0  0  0  0  0  0  0
   18.9328   69.9075   -3.1530 C   0  0  1  0  0  0  0  0  0  0  0  0
   17.4786   69.8582   -4.9950 C   0  0  2  0  0  0  0  0  0  0  0  0
   16.3949   68.1172   -2.2191 H   0  0  0  0  0  0  0  0  0  0  0  0
   16.7377   66.7314   -4.3409 H   0  0  0  0  0  0  0  0  0  0  0  0
   15.8724   71.3398   -6.7844 O   0  0  0  0  0  0  0  0  0  0  0  0
   18.6652   70.4255  -10.3352 O   0  0  0  0  0  0  0  0  0  0  0  0
   17.7627   70.0237   -6.3924 N   0  0  0  0  0  0  0  0  0  0  0  0
   17.2644   70.8822   -8.5514 N   0  0  0  0  0  0  0  0  0  0  0  0
   16.8912   70.7877   -7.2042 C   0  0  0  0  0  0  0  0  0  0  0  0
   18.8936   69.4349   -6.9448 C   0  0  0  0  0  0  0  0  0  0  0  0
   19.2363   69.5339   -8.2307 C   0  0  0  0  0  0  0  0  0  0  0  0
   18.3788   70.3139   -9.1470 C   0  0  0  0  0  0  0  0  0  0  0  0
   16.6720   71.4073   -9.1367 H   0  0  0  0  0  0  0  0  0  0  0  0
   21.4951   72.9044   -2.0652 O   0  0  0  0  0  0  0  0  0  0  0  0
   20.0291   73.5838   -2.0127 P   0  0  2  0  0  0  0  0  0  0  0  0
   20.3509   75.1315   -1.6646 O   0  0  0  0  0  0  0  0  0  0  0  0
   19.0769   72.9208   -1.0600 O   0  0  0  0  0  0  0  0  0  0  0  0
   19.5332   73.6062   -3.5476 O   0  0  0  0  0  0  0  0  0  0  0  0
   21.2047   74.8162   -4.7100 O   0  0  0  0  0  0  0  0  0  0  0  0
   18.7236   73.6347   -7.7949 O   0  0  0  0  0  0  0  0  0  0  0  0
   17.5994   74.6053   -5.2792 O   0  0  0  0  0  0  0  0  0  0  0  0
   21.2667   72.2914   -7.3716 O   0  0  0  0  0  0  0  0  0  0  0  0
   19.3738   73.5211   -6.5290 C   0  0  2  0  0  0  0  0  0  0  0  0
   18.9726   74.6985   -5.6401 C   0  0  2  0  0  0  0  0  0  0  0  0
   20.8848   73.5276   -6.7712 C   0  0  1  0  0  0  0  0  0  0  0  0
   19.8204   74.7373   -4.3679 C   0  0  1  0  0  0  0  0  0  0  0  0
   21.6575   73.6953   -5.4661 C   0  0  1  0  0  0  0  0  0  0  0  0
   17.7620   73.6327   -7.6660 H   0  0  0  0  0  0  0  0  0  0  0  0
   17.0556   74.5800   -6.0817 H   0  0  0  0  0  0  0  0  0  0  0  0
   20.7818   72.1724   -8.2032 H   0  0  0  0  0  0  0  0  0  0  0  0
   23.8338   72.8996   -5.8298 O   0  0  0  0  0  0  0  0  0  0  0  0
   23.5342   75.1598   -5.8592 O   0  0  0  0  0  0  0  0  0  0  0  0
   23.0887   74.0288   -5.7360 C   0  0  0  0  0  0  0  0  0  0  0  0
  1  4  1  0
  1 24  1  0
  1  2  1  6
  1  3  2  0
 25 28  1  0
 25 24  1  0
 25 26  1  1
 25 27  2  0
  6 11  1  0
  6 12  1  0
 29 36  1  0
 29 37  1  0
  9  7  1  1
  7 13  1  0
 10  8  1  1
  8 14  1  0
  4  5  1  0
 36 28  1  6
 33 30  1  6
 30 38  1  0
 34 31  1  1
 31 39  1  0
 35 32  1  1
 32 40  1  0
 41 43  1  0
 15 19  2  0
 42 43  2  0
 16 22  2  0
 12 17  1  6
 17 19  1  0
 17 20  1  0
 18 19  1  0
 18 22  1  0
 18 23  1  0
  9 10  1  0
  9 11  1  0
 10 12  1  0
 11  5  1  6
 33 34  1  0
 33 35  1  0
 34 36  1  0
 35 37  1  0
 37 43  1  6
 20 21  2  0
 21 22  1  0
M  CHG  3   2  -1  26  -1  41  -1
M  END
>  <COMPND>  (123) 
    udp_gluA.pdb 

>  <AUTHOR>  (123) 
    GENERATED BY OPEN BABEL 3.1.1

>  <MASTER>  (123) 
        0    0    0    0    0    0    0    0   56    0   56    0

>  <minimizedAffinity>  (123) 
-7.46869

>  <CNNscore>  (123) 
0.5231683850

>  <CNNaffinity>  (123) 
4.2616848946

>  <CNN_VS>  (123) 
2.2295787334

>  <CNNaffinity_variance>  (123) 
0.7324597836

$$$$
124
     RDKit          3D

 43 45  0  0  0  0  0  0  0  0999 V2000
   21.6642   74.3568   -6.2857 P   0  0  2  0  0  0  0  0  0  0  0  0
   21.1282   75.2602   -7.5167 O   0  0  0  0  0  0  0  0  0  0  0  0
   23.1189   73.9945   -6.3520 O   0  0  0  0  0  0  0  0  0  0  0  0
   20.6316   73.1120   -6.2389 O   0  0  0  0  0  0  0  0  0  0  0  0
   19.3468   73.2775   -6.8104 C   0  0  0  0  0  0  0  0  0  0  0  0
   19.4932   70.8784   -6.8353 O   0  0  0  0  0  0  0  0  0  0  0  0
   17.2227   70.9459   -8.7928 O   0  0  0  0  0  0  0  0  0  0  0  0
   15.9749   70.3025   -6.4551 O   0  0  0  0  0  0  0  0  0  0  0  0
   17.4704   71.7882   -7.6669 C   0  0  1  0  0  0  0  0  0  0  0  0
   17.1738   71.0454   -6.3814 C   0  0  2  0  0  0  0  0  0  0  0  0
   18.9736   72.0094   -7.5674 C   0  0  1  0  0  0  0  0  0  0  0  0
   18.4012   70.1620   -6.2371 C   0  0  2  0  0  0  0  0  0  0  0  0
   16.2686   70.7902   -8.8769 H   0  0  0  0  0  0  0  0  0  0  0  0
   15.2233   70.9098   -6.5460 H   0  0  0  0  0  0  0  0  0  0  0  0
   17.2073   68.1128   -4.7035 O   0  0  0  0  0  0  0  0  0  0  0  0
   19.7003   69.1954   -0.9811 O   0  0  0  0  0  0  0  0  0  0  0  0
   18.7197   69.8863   -4.8647 N   0  0  0  0  0  0  0  0  0  0  0  0
   18.4494   68.6546   -2.8507 N   0  0  0  0  0  0  0  0  0  0  0  0
   18.0618   68.8339   -4.1852 C   0  0  0  0  0  0  0  0  0  0  0  0
   19.6744   70.6522   -4.2069 C   0  0  0  0  0  0  0  0  0  0  0  0
   20.0333   70.4693   -2.9347 C   0  0  0  0  0  0  0  0  0  0  0  0
   19.3931   69.3910   -2.1531 C   0  0  0  0  0  0  0  0  0  0  0  0
   18.0037   67.9292   -2.3563 H   0  0  0  0  0  0  0  0  0  0  0  0
   21.2451   75.2255   -4.9886 O   0  0  0  0  0  0  0  0  0  0  0  0
   22.1476   75.9682   -3.8717 P   0  0  2  0  0  0  0  0  0  0  0  0
   21.1487   77.0957   -3.2789 O   0  0  0  0  0  0  0  0  0  0  0  0
   23.4496   76.5065   -4.3903 O   0  0  0  0  0  0  0  0  0  0  0  0
   22.2958   74.8892   -2.6816 O   0  0  0  0  0  0  0  0  0  0  0  0
   22.3060   72.5212   -2.6426 O   0  0  0  0  0  0  0  0  0  0  0  0
   20.2821   73.4108    0.8474 O   0  0  0  0  0  0  0  0  0  0  0  0
   19.7315   74.9005   -1.6045 O   0  0  0  0  0  0  0  0  0  0  0  0
   23.0485   72.5234    0.9505 O   0  0  0  0  0  0  0  0  0  0  0  0
   21.2341   73.6181   -0.1960 C   0  0  2  0  0  0  0  0  0  0  0  0
   20.5093   73.7108   -1.5390 C   0  0  2  0  0  0  0  0  0  0  0  0
   22.2028   72.4335   -0.1946 C   0  0  1  0  0  0  0  0  0  0  0  0
   21.5050   73.7022   -2.6997 C   0  0  1  0  0  0  0  0  0  0  0  0
   23.0757   72.4262   -1.4462 C   0  0  1  0  0  0  0  0  0  0  0  0
   19.6557   74.1514    0.8658 H   0  0  0  0  0  0  0  0  0  0  0  0
   19.0977   74.9127   -0.8707 H   0  0  0  0  0  0  0  0  0  0  0  0
   22.5052   72.5291    1.7541 H   0  0  0  0  0  0  0  0  0  0  0  0
   23.6285   70.6391   -2.8612 O   0  0  0  0  0  0  0  0  0  0  0  0
   24.3919   70.5409   -0.7149 O   0  0  0  0  0  0  0  0  0  0  0  0
   23.7728   71.1136   -1.5991 C   0  0  0  0  0  0  0  0  0  0  0  0
  1  4  1  0
  1 24  1  0
  1  2  1  6
  1  3  2  0
 25 28  1  0
 25 24  1  0
 25 26  1  1
 25 27  2  0
  6 11  1  0
  6 12  1  0
 29 36  1  0
 29 37  1  0
  9  7  1  6
  7 13  1  0
 10  8  1  6
  8 14  1  0
  4  5  1  0
 36 28  1  1
 33 30  1  1
 30 38  1  0
 34 31  1  1
 31 39  1  0
 35 32  1  1
 32 40  1  0
 41 43  1  0
 15 19  2  0
 42 43  2  0
 16 22  2  0
 12 17  1  1
 17 19  1  0
 17 20  1  0
 18 19  1  0
 18 22  1  0
 18 23  1  0
  9 10  1  0
  9 11  1  0
 10 12  1  0
 11  5  1  1
 33 34  1  0
 33 35  1  0
 34 36  1  0
 35 37  1  0
 37 43  1  6
 20 21  2  0
 21 22  1  0
M  CHG  3   2  -1  26  -1  41  -1
M  END
>  <COMPND>  (124) 
    udp_gluA.pdb 

>  <AUTHOR>  (124) 
    GENERATED BY OPEN BABEL 3.1.1

>  <MASTER>  (124) 
        0    0    0    0    0    0    0    0   56    0   56    0

>  <minimizedAffinity>  (124) 
-7.52052

>  <CNNscore>  (124) 
0.4793469608

>  <CNNaffinity>  (124) 
4.1607999802

>  <CNN_VS>  (124) 
1.9944667816

>  <CNNaffinity_variance>  (124) 
0.5859764814

$$$$
125
     RDKit          3D

 43 45  0  0  0  0  0  0  0  0999 V2000
   19.3808   75.7421   -6.4861 P   0  0  2  0  0  0  0  0  0  0  0  0
   17.8048   75.7141   -6.8526 O   0  0  0  0  0  0  0  0  0  0  0  0
   20.1587   76.8584   -7.1190 O   0  0  0  0  0  0  0  0  0  0  0  0
   19.8876   74.2459   -6.8362 O   0  0  0  0  0  0  0  0  0  0  0  0
   19.1642   73.1472   -6.3129 C   0  0  0  0  0  0  0  0  0  0  0  0
   18.9510   70.7891   -6.7274 O   0  0  0  0  0  0  0  0  0  0  0  0
   18.0464   71.5446   -9.4847 O   0  0  0  0  0  0  0  0  0  0  0  0
   15.6969   70.9823   -8.2199 O   0  0  0  0  0  0  0  0  0  0  0  0
   17.8004   72.2017   -8.2412 C   0  0  1  0  0  0  0  0  0  0  0  0
   16.7810   71.4280   -7.4322 C   0  0  2  0  0  0  0  0  0  0  0  0
   19.0525   72.0708   -7.3849 C   0  0  1  0  0  0  0  0  0  0  0  0
   17.6160   70.2828   -6.8851 C   0  0  2  0  0  0  0  0  0  0  0  0
   17.2601   71.6149  -10.0490 H   0  0  0  0  0  0  0  0  0  0  0  0
   15.1965   71.7481   -8.5443 H   0  0  0  0  0  0  0  0  0  0  0  0
   16.0491   71.8194   -5.1075 O   0  0  0  0  0  0  0  0  0  0  0  0
   15.8473   68.3912   -2.0332 O   0  0  0  0  0  0  0  0  0  0  0  0
   17.1403   69.8165   -5.6135 N   0  0  0  0  0  0  0  0  0  0  0  0
   15.9509   70.1109   -3.5776 N   0  0  0  0  0  0  0  0  0  0  0  0
   16.3602   70.6682   -4.7961 C   0  0  0  0  0  0  0  0  0  0  0  0
   17.4453   68.5291   -5.1885 C   0  0  0  0  0  0  0  0  0  0  0  0
   17.0480   68.0118   -4.0243 C   0  0  0  0  0  0  0  0  0  0  0  0
   16.2297   68.8364   -3.1111 C   0  0  0  0  0  0  0  0  0  0  0  0
   15.4084   70.6856   -2.9905 H   0  0  0  0  0  0  0  0  0  0  0  0
   19.3773   75.7556   -4.8698 O   0  0  0  0  0  0  0  0  0  0  0  0
   20.5745   75.5448   -3.8040 P   0  0  2  0  0  0  0  0  0  0  0  0
   19.9758   76.1859   -2.4435 O   0  0  0  0  0  0  0  0  0  0  0  0
   21.8909   76.1248   -4.2338 O   0  0  0  0  0  0  0  0  0  0  0  0
   20.6014   73.9556   -3.5277 O   0  0  0  0  0  0  0  0  0  0  0  0
   20.1258   72.5899   -1.6522 O   0  0  0  0  0  0  0  0  0  0  0  0
   23.4387   70.7051   -3.2461 O   0  0  0  0  0  0  0  0  0  0  0  0
   23.3270   73.6200   -3.0866 O   0  0  0  0  0  0  0  0  0  0  0  0
   20.7915   69.5610   -3.6131 O   0  0  0  0  0  0  0  0  0  0  0  0
   22.2302   71.4644   -3.2780 C   0  0  2  0  0  0  0  0  0  0  0  0
   22.4053   72.7400   -2.4535 C   0  0  2  0  0  0  0  0  0  0  0  0
   21.1128   70.5998   -2.6900 C   0  0  1  0  0  0  0  0  0  0  0  0
   21.0697   73.4629   -2.2737 C   0  0  1  0  0  0  0  0  0  0  0  0
   19.8548   71.4213   -2.4229 C   0  0  1  0  0  0  0  0  0  0  0  0
   24.1632   71.2345   -3.6150 H   0  0  0  0  0  0  0  0  0  0  0  0
   24.1767   73.1677   -3.2041 H   0  0  0  0  0  0  0  0  0  0  0  0
   21.5839   69.0308   -3.7917 H   0  0  0  0  0  0  0  0  0  0  0  0
   17.7884   71.4004   -1.3135 O   0  0  0  0  0  0  0  0  0  0  0  0
   19.0860   69.5345   -1.1304 O   0  0  0  0  0  0  0  0  0  0  0  0
   18.9000   70.6636   -1.5590 C   0  0  0  0  0  0  0  0  0  0  0  0
  1  4  1  0
  1 24  1  0
  1  2  1  6
  1  3  2  0
 25 28  1  0
 25 24  1  0
 25 26  1  1
 25 27  2  0
  6 11  1  0
  6 12  1  0
 29 36  1  0
 29 37  1  0
  9  7  1  6
  7 13  1  0
 10  8  1  6
  8 14  1  0
  4  5  1  0
 36 28  1  6
 33 30  1  1
 30 38  1  0
 34 31  1  6
 31 39  1  0
 35 32  1  6
 32 40  1  0
 41 43  1  0
 15 19  2  0
 42 43  2  0
 16 22  2  0
 12 17  1  1
 17 19  1  0
 17 20  1  0
 18 19  1  0
 18 22  1  0
 18 23  1  0
  9 10  1  0
  9 11  1  0
 10 12  1  0
 11  5  1  1
 33 34  1  0
 33 35  1  0
 34 36  1  0
 35 37  1  0
 37 43  1  1
 20 21  2  0
 21 22  1  0
M  CHG  3   2  -1  26  -1  41  -1
M  END
>  <COMPND>  (125) 
    udp_gluA.pdb 

>  <AUTHOR>  (125) 
    GENERATED BY OPEN BABEL 3.1.1

>  <MASTER>  (125) 
        0    0    0    0    0    0    0    0   56    0   56    0

>  <minimizedAffinity>  (125) 
-6.88523

>  <CNNscore>  (125) 
0.4572004378

>  <CNNaffinity>  (125) 
4.0937905312

>  <CNN_VS>  (125) 
1.8716828823

>  <CNNaffinity_variance>  (125) 
0.7600008249

$$$$
126
     RDKit          3D

 43 45  0  0  0  0  0  0  0  0999 V2000
   20.8758   71.0904   -1.2715 P   0  0  2  0  0  0  0  0  0  0  0  0
   22.3221   70.9117   -0.5678 O   0  0  0  0  0  0  0  0  0  0  0  0
   19.7624   71.4758   -0.3421 O   0  0  0  0  0  0  0  0  0  0  0  0
   20.6655   69.7073   -2.0842 O   0  0  0  0  0  0  0  0  0  0  0  0
   20.0281   69.7556   -3.3475 C   0  0  0  0  0  0  0  0  0  0  0  0
   17.9927   70.6602   -4.2512 O   0  0  0  0  0  0  0  0  0  0  0  0
   16.5577   68.7637   -2.4249 O   0  0  0  0  0  0  0  0  0  0  0  0
   16.4209   67.4908   -4.8326 O   0  0  0  0  0  0  0  0  0  0  0  0
   17.7814   68.5805   -3.1373 C   0  0  1  0  0  0  0  0  0  0  0  0
   17.5036   68.3700   -4.6107 C   0  0  2  0  0  0  0  0  0  0  0  0
   18.5267   69.9082   -3.1401 C   0  0  1  0  0  0  0  0  0  0  0  0
   17.2141   69.7849   -5.0822 C   0  0  2  0  0  0  0  0  0  0  0  0
   16.0639   67.9285   -2.4097 H   0  0  0  0  0  0  0  0  0  0  0  0
   16.6548   66.6036   -4.5158 H   0  0  0  0  0  0  0  0  0  0  0  0
   15.6875   71.2670   -6.9395 O   0  0  0  0  0  0  0  0  0  0  0  0
   18.7301   70.5132  -10.3185 O   0  0  0  0  0  0  0  0  0  0  0  0
   17.5839   69.9918   -6.4538 N   0  0  0  0  0  0  0  0  0  0  0  0
   17.2038   70.8893   -8.6209 N   0  0  0  0  0  0  0  0  0  0  0  0
   16.7464   70.7522   -7.3037 C   0  0  0  0  0  0  0  0  0  0  0  0
   18.7644   69.4465   -6.9437 C   0  0  0  0  0  0  0  0  0  0  0  0
   19.1873   69.5858   -8.2017 C   0  0  0  0  0  0  0  0  0  0  0  0
   18.3700   70.3652   -9.1546 C   0  0  0  0  0  0  0  0  0  0  0  0
   16.6365   71.4128   -9.2319 H   0  0  0  0  0  0  0  0  0  0  0  0
   21.1733   72.1604   -2.4459 O   0  0  0  0  0  0  0  0  0  0  0  0
   22.5601   72.8112   -2.9625 P   0  0  2  0  0  0  0  0  0  0  0  0
   23.4257   71.5222   -3.4203 O   0  0  0  0  0  0  0  0  0  0  0  0
   23.2429   73.6876   -1.9527 O   0  0  0  0  0  0  0  0  0  0  0  0
   22.1750   73.5538   -4.3419 O   0  0  0  0  0  0  0  0  0  0  0  0
   20.4712   72.7965   -5.8023 O   0  0  0  0  0  0  0  0  0  0  0  0
   22.8197   75.0498   -8.3471 O   0  0  0  0  0  0  0  0  0  0  0  0
   24.0496   73.2767   -6.3778 O   0  0  0  0  0  0  0  0  0  0  0  0
   20.2823   76.0982   -7.3914 O   0  0  0  0  0  0  0  0  0  0  0  0
   22.2180   74.6930   -7.1027 C   0  0  2  0  0  0  0  0  0  0  0  0
   22.6644   73.2864   -6.7030 C   0  0  2  0  0  0  0  0  0  0  0  0
   20.6988   74.7385   -7.2816 C   0  0  1  0  0  0  0  0  0  0  0  0
   21.8669   72.7804   -5.5002 C   0  0  1  0  0  0  0  0  0  0  0  0
   19.9789   74.1020   -6.0962 C   0  0  1  0  0  0  0  0  0  0  0  0
   23.7855   75.0277   -8.2576 H   0  0  0  0  0  0  0  0  0  0  0  0
   24.5616   73.5969   -7.1366 H   0  0  0  0  0  0  0  0  0  0  0  0
   20.7334   76.5150   -8.1422 H   0  0  0  0  0  0  0  0  0  0  0  0
   17.8197   73.6750   -5.2857 O   0  0  0  0  0  0  0  0  0  0  0  0
   18.0725   73.8170   -7.5474 O   0  0  0  0  0  0  0  0  0  0  0  0
   18.5416   73.8535   -6.4197 C   0  0  0  0  0  0  0  0  0  0  0  0
  1  4  1  0
  1 24  1  0
  1  2  1  1
  1  3  2  0
 25 28  1  0
 25 24  1  0
 25 26  1  6
 25 27  2  0
  6 11  1  0
  6 12  1  0
 29 36  1  0
 29 37  1  0
  9  7  1  1
  7 13  1  0
 10  8  1  1
  8 14  1  0
  4  5  1  0
 36 28  1  1
 33 30  1  6
 30 38  1  0
 34 31  1  1
 31 39  1  0
 35 32  1  1
 32 40  1  0
 41 43  1  0
 15 19  2  0
 42 43  2  0
 16 22  2  0
 12 17  1  6
 17 19  1  0
 17 20  1  0
 18 19  1  0
 18 22  1  0
 18 23  1  0
  9 10  1  0
  9 11  1  0
 10 12  1  0
 11  5  1  6
 33 34  1  0
 33 35  1  0
 34 36  1  0
 35 37  1  0
 37 43  1  6
 20 21  2  0
 21 22  1  0
M  CHG  3   2  -1  26  -1  41  -1
M  END
>  <COMPND>  (126) 
    udp_gluA.pdb 

>  <AUTHOR>  (126) 
    GENERATED BY OPEN BABEL 3.1.1

>  <MASTER>  (126) 
        0    0    0    0    0    0    0    0   56    0   56    0

>  <minimizedAffinity>  (126) 
-7.58224

>  <CNNscore>  (126) 
0.4562265277

>  <CNNaffinity>  (126) 
4.2334957123

>  <CNN_VS>  (126) 
1.9314330816

>  <CNNaffinity_variance>  (126) 
0.8000208735

$$$$
127
     RDKit          3D

 43 45  0  0  0  0  0  0  0  0999 V2000
   17.1487   70.2389   -2.4111 P   0  0  2  0  0  0  0  0  0  0  0  0
   15.8172   70.0121   -3.3025 O   0  0  0  0  0  0  0  0  0  0  0  0
   17.6610   69.0127   -1.7141 O   0  0  0  0  0  0  0  0  0  0  0  0
   16.7664   71.4844   -1.4516 O   0  0  0  0  0  0  0  0  0  0  0  0
   17.5869   72.6378   -1.4817 C   0  0  0  0  0  0  0  0  0  0  0  0
   19.1970   72.1546    0.2364 O   0  0  0  0  0  0  0  0  0  0  0  0
   18.3564   74.7440    1.4932 O   0  0  0  0  0  0  0  0  0  0  0  0
   20.6904   75.4140    0.2524 O   0  0  0  0  0  0  0  0  0  0  0  0
   18.4809   74.4089    0.1109 C   0  0  1  0  0  0  0  0  0  0  0  0
   19.9413   74.3431   -0.2830 C   0  0  2  0  0  0  0  0  0  0  0  0
   18.0383   72.9626   -0.0636 C   0  0  1  0  0  0  0  0  0  0  0  0
   20.3599   72.9965    0.2820 C   0  0  2  0  0  0  0  0  0  0  0  0
   18.6336   75.6639    1.6295 H   0  0  0  0  0  0  0  0  0  0  0  0
   20.3864   76.2486   -0.1386 H   0  0  0  0  0  0  0  0  0  0  0  0
   23.1010   73.6215    0.5514 O   0  0  0  0  0  0  0  0  0  0  0  0
   24.3006   70.5845   -2.7015 O   0  0  0  0  0  0  0  0  0  0  0  0
   21.4099   72.3842   -0.4820 N   0  0  0  0  0  0  0  0  0  0  0  0
   23.6957   72.1090   -1.0697 N   0  0  0  0  0  0  0  0  0  0  0  0
   22.7545   72.7700   -0.2695 C   0  0  0  0  0  0  0  0  0  0  0  0
   21.1039   71.4129   -1.4274 C   0  0  0  0  0  0  0  0  0  0  0  0
   22.0120   70.7916   -2.1825 C   0  0  0  0  0  0  0  0  0  0  0  0
   23.4398   71.1371   -2.0233 C   0  0  0  0  0  0  0  0  0  0  0  0
   24.6384   72.3623   -0.9412 H   0  0  0  0  0  0  0  0  0  0  0  0
   18.1833   70.8962   -3.4648 O   0  0  0  0  0  0  0  0  0  0  0  0
   18.8826   70.2846   -4.7879 P   0  0  2  0  0  0  0  0  0  0  0  0
   17.8560   70.6926   -5.9711 O   0  0  0  0  0  0  0  0  0  0  0  0
   19.1779   68.8150   -4.7049 O   0  0  0  0  0  0  0  0  0  0  0  0
   20.1775   71.2149   -5.0336 O   0  0  0  0  0  0  0  0  0  0  0  0
   20.5587   73.5206   -4.6496 O   0  0  0  0  0  0  0  0  0  0  0  0
   22.7610   72.8648   -8.0830 O   0  0  0  0  0  0  0  0  0  0  0  0
   20.1093   71.6781   -7.7753 O   0  0  0  0  0  0  0  0  0  0  0  0
   24.1030   73.1411   -5.5191 O   0  0  0  0  0  0  0  0  0  0  0  0
   22.1748   72.5259   -6.8262 C   0  0  2  0  0  0  0  0  0  0  0  0
   20.6554   72.6708   -6.9145 C   0  0  2  0  0  0  0  0  0  0  0  0
   22.7396   73.4774   -5.7690 C   0  0  1  0  0  0  0  0  0  0  0  0
   20.0122   72.5407   -5.5331 C   0  0  1  0  0  0  0  0  0  0  0  0
   21.9645   73.3775   -4.4584 C   0  0  1  0  0  0  0  0  0  0  0  0
   22.4168   72.2731   -8.7705 H   0  0  0  0  0  0  0  0  0  0  0  0
   20.5132   71.7547   -8.6536 H   0  0  0  0  0  0  0  0  0  0  0  0
   24.6075   73.2006   -6.3454 H   0  0  0  0  0  0  0  0  0  0  0  0
   21.2445   75.3667   -3.4454 O   0  0  0  0  0  0  0  0  0  0  0  0
   23.3698   74.6777   -2.9902 O   0  0  0  0  0  0  0  0  0  0  0  0
   22.2984   74.5206   -3.5562 C   0  0  0  0  0  0  0  0  0  0  0  0
  1  4  1  0
  1 24  1  0
  1  2  1  6
  1  3  2  0
 25 28  1  0
 25 24  1  0
 25 26  1  6
 25 27  2  0
  6 11  1  0
  6 12  1  0
 29 36  1  0
 29 37  1  0
  9  7  1  1
  7 13  1  0
 10  8  1  1
  8 14  1  0
  4  5  1  0
 36 28  1  1
 33 30  1  6
 30 38  1  0
 34 31  1  6
 31 39  1  0
 35 32  1  1
 32 40  1  0
 41 43  1  0
 15 19  2  0
 42 43  2  0
 16 22  2  0
 12 17  1  6
 17 19  1  0
 17 20  1  0
 18 19  1  0
 18 22  1  0
 18 23  1  0
  9 10  1  0
  9 11  1  0
 10 12  1  0
 11  5  1  6
 33 34  1  0
 33 35  1  0
 34 36  1  0
 35 37  1  0
 37 43  1  1
 20 21  2  0
 21 22  1  0
M  CHG  3   2  -1  26  -1  41  -1
M  END
>  <COMPND>  (127) 
    udp_gluA.pdb 

>  <AUTHOR>  (127) 
    GENERATED BY OPEN BABEL 3.1.1

>  <MASTER>  (127) 
        0    0    0    0    0    0    0    0   56    0   56    0

>  <minimizedAffinity>  (127) 
-7.12866

>  <CNNscore>  (127) 
0.4383499622

>  <CNNaffinity>  (127) 
3.7329983711

>  <CNN_VS>  (127) 
1.6363596916

>  <CNNaffinity_variance>  (127) 
1.1198269129

$$$$
128
     RDKit          3D

 43 45  0  0  0  0  0  0  0  0999 V2000
   20.2516   75.4006   -5.5698 P   0  0  2  0  0  0  0  0  0  0  0  0
   19.5718   76.6538   -6.3355 O   0  0  0  0  0  0  0  0  0  0  0  0
   21.4993   74.8676   -6.2109 O   0  0  0  0  0  0  0  0  0  0  0  0
   19.0391   74.3421   -5.4048 O   0  0  0  0  0  0  0  0  0  0  0  0
   17.8918   74.4957   -6.2200 C   0  0  0  0  0  0  0  0  0  0  0  0
   18.6433   72.4188   -7.1684 O   0  0  0  0  0  0  0  0  0  0  0  0
   17.1023   73.1954   -9.6206 O   0  0  0  0  0  0  0  0  0  0  0  0
   15.4339   71.4111   -8.4087 O   0  0  0  0  0  0  0  0  0  0  0  0
   16.7889   73.4235   -8.2465 C   0  0  1  0  0  0  0  0  0  0  0  0
   16.3295   72.1373   -7.5931 C   0  0  2  0  0  0  0  0  0  0  0  0
   18.0901   73.7085   -7.5089 C   0  0  1  0  0  0  0  0  0  0  0  0
   17.6439   71.4078   -7.3743 C   0  0  2  0  0  0  0  0  0  0  0  0
   16.2863   73.0111  -10.1124 H   0  0  0  0  0  0  0  0  0  0  0  0
   14.6129   71.9172   -8.5176 H   0  0  0  0  0  0  0  0  0  0  0  0
   19.3794   69.2166   -6.9701 O   0  0  0  0  0  0  0  0  0  0  0  0
   17.4150   68.1710   -2.9337 O   0  0  0  0  0  0  0  0  0  0  0  0
   17.6080   70.5462   -6.2266 N   0  0  0  0  0  0  0  0  0  0  0  0
   18.3987   68.6973   -4.9606 N   0  0  0  0  0  0  0  0  0  0  0  0
   18.5242   69.4732   -6.1205 C   0  0  0  0  0  0  0  0  0  0  0  0
   16.6747   70.7686   -5.2214 C   0  0  0  0  0  0  0  0  0  0  0  0
   16.5672   70.0205   -4.1215 C   0  0  0  0  0  0  0  0  0  0  0  0
   17.4864   68.8789   -3.9338 C   0  0  0  0  0  0  0  0  0  0  0  0
   19.0244   67.9432   -4.8653 H   0  0  0  0  0  0  0  0  0  0  0  0
   20.4530   75.9597   -4.0666 O   0  0  0  0  0  0  0  0  0  0  0  0
   21.7774   76.0796   -3.1472 P   0  0  2  0  0  0  0  0  0  0  0  0
   21.2818   76.9859   -1.9010 O   0  0  0  0  0  0  0  0  0  0  0  0
   22.9791   76.6209   -3.8662 O   0  0  0  0  0  0  0  0  0  0  0  0
   21.9780   74.6052   -2.5241 O   0  0  0  0  0  0  0  0  0  0  0  0
   20.5211   72.7706   -2.1766 O   0  0  0  0  0  0  0  0  0  0  0  0
   22.8840   72.6207    1.2090 O   0  0  0  0  0  0  0  0  0  0  0  0
   21.9086   75.1814    0.1960 O   0  0  0  0  0  0  0  0  0  0  0  0
   23.3024   70.7171   -0.9478 O   0  0  0  0  0  0  0  0  0  0  0  0
   22.5882   72.8803   -0.1633 C   0  0  2  0  0  0  0  0  0  0  0  0
   21.4613   73.9092   -0.2581 C   0  0  2  0  0  0  0  0  0  0  0  0
   22.1612   71.5619   -0.8125 C   0  0  1  0  0  0  0  0  0  0  0  0
   20.9613   74.0418   -1.6973 C   0  0  1  0  0  0  0  0  0  0  0  0
   21.5576   71.7916   -2.1951 C   0  0  1  0  0  0  0  0  0  0  0  0
   23.1577   73.4445    1.6424 H   0  0  0  0  0  0  0  0  0  0  0  0
   22.2276   75.1046    1.1086 H   0  0  0  0  0  0  0  0  0  0  0  0
   23.6961   70.5631   -0.0748 H   0  0  0  0  0  0  0  0  0  0  0  0
   20.2833   69.9025   -1.6396 O   0  0  0  0  0  0  0  0  0  0  0  0
   20.7904   70.2041   -3.8421 O   0  0  0  0  0  0  0  0  0  0  0  0
   20.8526   70.5655   -2.6765 C   0  0  0  0  0  0  0  0  0  0  0  0
  1  4  1  0
  1 24  1  0
  1  2  1  6
  1  3  2  0
 25 28  1  0
 25 24  1  0
 25 26  1  1
 25 27  2  0
  6 11  1  0
  6 12  1  0
 29 36  1  0
 29 37  1  0
  9  7  1  6
  7 13  1  0
 10  8  1  6
  8 14  1  0
  4  5  1  0
 36 28  1  6
 33 30  1  1
 30 38  1  0
 34 31  1  6
 31 39  1  0
 35 32  1  6
 32 40  1  0
 41 43  1  0
 15 19  2  0
 42 43  2  0
 16 22  2  0
 12 17  1  1
 17 19  1  0
 17 20  1  0
 18 19  1  0
 18 22  1  0
 18 23  1  0
  9 10  1  0
  9 11  1  0
 10 12  1  0
 11  5  1  1
 33 34  1  0
 33 35  1  0
 34 36  1  0
 35 37  1  0
 37 43  1  1
 20 21  2  0
 21 22  1  0
M  CHG  3   2  -1  26  -1  41  -1
M  END
>  <COMPND>  (128) 
    udp_gluA.pdb 

>  <AUTHOR>  (128) 
    GENERATED BY OPEN BABEL 3.1.1

>  <MASTER>  (128) 
        0    0    0    0    0    0    0    0   56    0   56    0

>  <minimizedAffinity>  (128) 
-6.82467

>  <CNNscore>  (128) 
0.4144822061

>  <CNNaffinity>  (128) 
4.1872572899

>  <CNN_VS>  (128) 
1.7355436087

>  <CNNaffinity_variance>  (128) 
0.2887427807

$$$$
129
     RDKit          3D

 43 45  0  0  0  0  0  0  0  0999 V2000
   19.0921   74.2026   -6.6664 P   0  0  2  0  0  0  0  0  0  0  0  0
   18.0493   75.4321   -6.8074 O   0  0  0  0  0  0  0  0  0  0  0  0
   20.5319   74.5648   -6.8846 O   0  0  0  0  0  0  0  0  0  0  0  0
   18.4945   73.0708   -7.6563 O   0  0  0  0  0  0  0  0  0  0  0  0
   18.9258   71.7324   -7.4915 C   0  0  0  0  0  0  0  0  0  0  0  0
   17.9425   69.7634   -6.5252 O   0  0  0  0  0  0  0  0  0  0  0  0
   15.3234   70.7863   -7.5671 O   0  0  0  0  0  0  0  0  0  0  0  0
   15.2230   71.4695   -4.9290 O   0  0  0  0  0  0  0  0  0  0  0  0
   16.4320   71.5144   -7.0382 C   0  0  1  0  0  0  0  0  0  0  0  0
   16.4941   71.3549   -5.5339 C   0  0  2  0  0  0  0  0  0  0  0  0
   17.7089   70.8162   -7.4856 C   0  0  1  0  0  0  0  0  0  0  0  0
   17.0877   69.9641   -5.3884 C   0  0  2  0  0  0  0  0  0  0  0  0
   14.4959   71.2136   -7.2944 H   0  0  0  0  0  0  0  0  0  0  0  0
   14.8882   72.3726   -5.0488 H   0  0  0  0  0  0  0  0  0  0  0  0
   15.9903   69.6168   -2.8093 O   0  0  0  0  0  0  0  0  0  0  0  0
   20.1628   69.4313   -0.8599 O   0  0  0  0  0  0  0  0  0  0  0  0
   17.8643   69.8224   -4.1894 N   0  0  0  0  0  0  0  0  0  0  0  0
   18.0695   69.5257   -1.8407 N   0  0  0  0  0  0  0  0  0  0  0  0
   17.2149   69.6530   -2.9437 C   0  0  0  0  0  0  0  0  0  0  0  0
   19.2520   69.8502   -4.2546 C   0  0  0  0  0  0  0  0  0  0  0  0
   20.0533   69.7275   -3.1945 C   0  0  0  0  0  0  0  0  0  0  0  0
   19.4547   69.5478   -1.8556 C   0  0  0  0  0  0  0  0  0  0  0  0
   17.6405   69.4088   -0.9623 H   0  0  0  0  0  0  0  0  0  0  0  0
   18.7612   73.6128   -5.1982 O   0  0  0  0  0  0  0  0  0  0  0  0
   19.4367   73.9068   -3.7592 P   0  0  2  0  0  0  0  0  0  0  0  0
   18.4256   73.1849   -2.7215 O   0  0  0  0  0  0  0  0  0  0  0  0
   19.6770   75.3618   -3.4775 O   0  0  0  0  0  0  0  0  0  0  0  0
   20.7653   72.9921   -3.7361 O   0  0  0  0  0  0  0  0  0  0  0  0
   22.2549   73.8638   -2.1142 O   0  0  0  0  0  0  0  0  0  0  0  0
   24.4224   70.6881   -3.6258 O   0  0  0  0  0  0  0  0  0  0  0  0
   22.9119   72.4351   -5.4148 O   0  0  0  0  0  0  0  0  0  0  0  0
   23.1450   70.4757   -1.0231 O   0  0  0  0  0  0  0  0  0  0  0  0
   23.2435   71.3983   -3.2466 C   0  0  2  0  0  0  0  0  0  0  0  0
   23.1550   72.7030   -4.0387 C   0  0  2  0  0  0  0  0  0  0  0  0
   23.3294   71.6908   -1.7470 C   0  0  1  0  0  0  0  0  0  0  0  0
   22.0361   73.5954   -3.4997 C   0  0  1  0  0  0  0  0  0  0  0  0
   22.2575   72.6856   -1.3112 C   0  0  1  0  0  0  0  0  0  0  0  0
   24.3902   70.4912   -4.5753 H   0  0  0  0  0  0  0  0  0  0  0  0
   23.6180   71.8691   -5.7633 H   0  0  0  0  0  0  0  0  0  0  0  0
   23.8209   69.8338   -1.2913 H   0  0  0  0  0  0  0  0  0  0  0  0
   22.6595   74.5638    0.0351 O   0  0  0  0  0  0  0  0  0  0  0  0
   22.6663   72.5277    1.0615 O   0  0  0  0  0  0  0  0  0  0  0  0
   22.5474   73.2125    0.0565 C   0  0  0  0  0  0  0  0  0  0  0  0
  1  4  1  0
  1 24  1  0
  1  2  1  6
  1  3  2  0
 25 28  1  0
 25 24  1  0
 25 26  1  1
 25 27  2  0
  6 11  1  0
  6 12  1  0
 29 36  1  0
 29 37  1  0
  9  7  1  6
  7 13  1  0
 10  8  1  6
  8 14  1  0
  4  5  1  0
 36 28  1  1
 33 30  1  6
 30 38  1  0
 34 31  1  6
 31 39  1  0
 35 32  1  1
 32 40  1  0
 41 43  1  0
 15 19  2  0
 42 43  2  0
 16 22  2  0
 12 17  1  1
 17 19  1  0
 17 20  1  0
 18 19  1  0
 18 22  1  0
 18 23  1  0
  9 10  1  0
  9 11  1  0
 10 12  1  0
 11  5  1  1
 33 34  1  0
 33 35  1  0
 34 36  1  0
 35 37  1  0
 37 43  1  1
 20 21  2  0
 21 22  1  0
M  CHG  3   2  -1  26  -1  41  -1
M  END
>  <COMPND>  (129) 
    udp_gluA.pdb 

>  <AUTHOR>  (129) 
    GENERATED BY OPEN BABEL 3.1.1

>  <MASTER>  (129) 
        0    0    0    0    0    0    0    0   56    0   56    0

>  <minimizedAffinity>  (129) 
-7.74850

>  <CNNscore>  (129) 
0.4102908075

>  <CNNaffinity>  (129) 
4.0567159653

>  <CNN_VS>  (129) 
1.6644332409

>  <CNNaffinity_variance>  (129) 
0.6753201485

$$$$
130
     RDKit          3D

 43 45  0  0  0  0  0  0  0  0999 V2000
   19.2728   75.6697   -4.2343 P   0  0  2  0  0  0  0  0  0  0  0  0
   18.6274   77.1537   -4.2203 O   0  0  0  0  0  0  0  0  0  0  0  0
   20.6641   75.5787   -3.6795 O   0  0  0  0  0  0  0  0  0  0  0  0
   19.0942   75.1828   -5.7669 O   0  0  0  0  0  0  0  0  0  0  0  0
   17.9331   74.4501   -6.1127 C   0  0  0  0  0  0  0  0  0  0  0  0
   18.6857   72.3369   -6.9761 O   0  0  0  0  0  0  0  0  0  0  0  0
   17.3951   73.1437   -9.5597 O   0  0  0  0  0  0  0  0  0  0  0  0
   15.5611   71.4353   -8.4855 O   0  0  0  0  0  0  0  0  0  0  0  0
   16.9717   73.3979   -8.2201 C   0  0  1  0  0  0  0  0  0  0  0  0
   16.4088   72.1366   -7.6000 C   0  0  2  0  0  0  0  0  0  0  0  0
   18.2134   73.6424   -7.3734 C   0  0  1  0  0  0  0  0  0  0  0  0
   17.6706   71.3613   -7.2614 C   0  0  2  0  0  0  0  0  0  0  0  0
   16.6188   72.9845  -10.1198 H   0  0  0  0  0  0  0  0  0  0  0  0
   14.7725   71.9702   -8.6698 H   0  0  0  0  0  0  0  0  0  0  0  0
   19.3315   69.1614   -6.6462 O   0  0  0  0  0  0  0  0  0  0  0  0
   16.9301   68.1803   -2.8364 O   0  0  0  0  0  0  0  0  0  0  0  0
   17.5021   70.5140   -6.1149 N   0  0  0  0  0  0  0  0  0  0  0  0
   18.1333   68.6742   -4.7499 N   0  0  0  0  0  0  0  0  0  0  0  0
   18.3914   69.4351   -5.8977 C   0  0  0  0  0  0  0  0  0  0  0  0
   16.4671   70.7559   -5.2198 C   0  0  0  0  0  0  0  0  0  0  0  0
   16.2337   70.0220   -4.1300 C   0  0  0  0  0  0  0  0  0  0  0  0
   17.1164   68.8754   -3.8306 C   0  0  0  0  0  0  0  0  0  0  0  0
   18.7379   67.9164   -4.5787 H   0  0  0  0  0  0  0  0  0  0  0  0
   18.1731   74.7883   -3.4426 O   0  0  0  0  0  0  0  0  0  0  0  0
   18.1227   74.2836   -1.9075 P   0  0  2  0  0  0  0  0  0  0  0  0
   16.7820   73.3776   -1.8600 O   0  0  0  0  0  0  0  0  0  0  0  0
   18.1572   75.3905   -0.8939 O   0  0  0  0  0  0  0  0  0  0  0  0
   19.3339   73.2252   -1.7846 O   0  0  0  0  0  0  0  0  0  0  0  0
   20.6431   72.1503   -3.4399 O   0  0  0  0  0  0  0  0  0  0  0  0
   20.4057   69.2293   -0.5279 O   0  0  0  0  0  0  0  0  0  0  0  0
   18.0561   70.8187   -1.2261 O   0  0  0  0  0  0  0  0  0  0  0  0
   22.8570   70.7545   -0.8684 O   0  0  0  0  0  0  0  0  0  0  0  0
   20.4610   70.5628   -1.0347 C   0  0  2  0  0  0  0  0  0  0  0  0
   19.2722   70.8066   -1.9646 C   0  0  2  0  0  0  0  0  0  0  0  0
   21.7768   70.7239   -1.7994 C   0  0  1  0  0  0  0  0  0  0  0  0
   19.4196   72.1375   -2.7035 C   0  0  1  0  0  0  0  0  0  0  0  0
   21.7951   72.0163   -2.6105 C   0  0  1  0  0  0  0  0  0  0  0  0
   19.5778   69.1035   -0.0380 H   0  0  0  0  0  0  0  0  0  0  0  0
   17.9562   69.9773   -0.7545 H   0  0  0  0  0  0  0  0  0  0  0  0
   22.8566   69.9375   -0.3456 H   0  0  0  0  0  0  0  0  0  0  0  0
   23.6823   70.8986   -3.4417 O   0  0  0  0  0  0  0  0  0  0  0  0
   23.1263   72.8770   -4.4294 O   0  0  0  0  0  0  0  0  0  0  0  0
   22.9185   72.0085   -3.5954 C   0  0  0  0  0  0  0  0  0  0  0  0
  1  4  1  0
  1 24  1  0
  1  2  1  6
  1  3  2  0
 25 28  1  0
 25 24  1  0
 25 26  1  6
 25 27  2  0
  6 11  1  0
  6 12  1  0
 29 36  1  0
 29 37  1  0
  9  7  1  6
  7 13  1  0
 10  8  1  6
  8 14  1  0
  4  5  1  0
 36 28  1  1
 33 30  1  6
 30 38  1  0
 34 31  1  1
 31 39  1  0
 35 32  1  1
 32 40  1  0
 41 43  1  0
 15 19  2  0
 42 43  2  0
 16 22  2  0
 12 17  1  1
 17 19  1  0
 17 20  1  0
 18 19  1  0
 18 22  1  0
 18 23  1  0
  9 10  1  0
  9 11  1  0
 10 12  1  0
 11  5  1  1
 33 34  1  0
 33 35  1  0
 34 36  1  0
 35 37  1  0
 37 43  1  6
 20 21  2  0
 21 22  1  0
M  CHG  3   2  -1  26  -1  41  -1
M  END
>  <COMPND>  (130) 
    udp_gluA.pdb 

>  <AUTHOR>  (130) 
    GENERATED BY OPEN BABEL 3.1.1

>  <MASTER>  (130) 
        0    0    0    0    0    0    0    0   56    0   56    0

>  <minimizedAffinity>  (130) 
-6.72940

>  <CNNscore>  (130) 
0.3867018223

>  <CNNaffinity>  (130) 
3.9930038452

>  <CNN_VS>  (130) 
1.5441018343

>  <CNNaffinity_variance>  (130) 
0.8839983940

$$$$
131
     RDKit          3D

 43 45  0  0  0  0  0  0  0  0999 V2000
   21.6662   72.8584   -6.5207 P   0  0  2  0  0  0  0  0  0  0  0  0
   21.0521   74.3502   -6.3927 O   0  0  0  0  0  0  0  0  0  0  0  0
   22.9433   72.7640   -7.3029 O   0  0  0  0  0  0  0  0  0  0  0  0
   20.4313   71.9768   -7.0827 O   0  0  0  0  0  0  0  0  0  0  0  0
   19.1768   72.6080   -7.2628 C   0  0  0  0  0  0  0  0  0  0  0  0
   18.3918   70.3783   -6.8269 O   0  0  0  0  0  0  0  0  0  0  0  0
   15.8307   71.2236   -8.1376 O   0  0  0  0  0  0  0  0  0  0  0  0
   15.2198   71.3731   -5.4842 O   0  0  0  0  0  0  0  0  0  0  0  0
   16.7122   71.9784   -7.3059 C   0  0  1  0  0  0  0  0  0  0  0  0
   16.5696   71.5455   -5.8621 C   0  0  2  0  0  0  0  0  0  0  0  0
   18.1389   71.5540   -7.6263 C   0  0  1  0  0  0  0  0  0  0  0  0
   17.3526   70.2438   -5.8444 C   0  0  2  0  0  0  0  0  0  0  0  0
   14.9129   71.4774   -7.9508 H   0  0  0  0  0  0  0  0  0  0  0  0
   14.7645   72.2299   -5.5112 H   0  0  0  0  0  0  0  0  0  0  0  0
   17.0629   67.8250   -4.4154 O   0  0  0  0  0  0  0  0  0  0  0  0
   19.6901   69.3468   -0.9475 O   0  0  0  0  0  0  0  0  0  0  0  0
   17.9501   69.9811   -4.5658 N   0  0  0  0  0  0  0  0  0  0  0  0
   18.3708   68.5856   -2.6891 N   0  0  0  0  0  0  0  0  0  0  0  0
   17.7421   68.7330   -3.9325 C   0  0  0  0  0  0  0  0  0  0  0  0
   18.7329   70.9522   -3.9533 C   0  0  0  0  0  0  0  0  0  0  0  0
   19.3258   70.7972   -2.7679 C   0  0  0  0  0  0  0  0  0  0  0  0
   19.1581   69.5226   -2.0394 C   0  0  0  0  0  0  0  0  0  0  0  0
   18.2389   67.7258   -2.2280 H   0  0  0  0  0  0  0  0  0  0  0  0
   21.7827   72.3806   -4.9809 O   0  0  0  0  0  0  0  0  0  0  0  0
   22.9556   72.5944   -3.8891 P   0  0  2  0  0  0  0  0  0  0  0  0
   23.6387   73.9883   -4.3482 O   0  0  0  0  0  0  0  0  0  0  0  0
   23.9129   71.4430   -3.7802 O   0  0  0  0  0  0  0  0  0  0  0  0
   22.1804   72.9523   -2.5203 O   0  0  0  0  0  0  0  0  0  0  0  0
   21.0565   74.9970   -2.9266 O   0  0  0  0  0  0  0  0  0  0  0  0
   19.8250   74.1098    0.9158 O   0  0  0  0  0  0  0  0  0  0  0  0
   22.6075   73.7069    0.1224 O   0  0  0  0  0  0  0  0  0  0  0  0
   18.0154   73.7134   -1.3246 O   0  0  0  0  0  0  0  0  0  0  0  0
   20.2450   73.8204   -0.4175 C   0  0  2  0  0  0  0  0  0  0  0  0
   21.6387   74.4032   -0.6529 C   0  0  2  0  0  0  0  0  0  0  0  0
   19.2350   74.4511   -1.3789 C   0  0  1  0  0  0  0  0  0  0  0  0
   22.0261   74.3155   -2.1298 C   0  0  1  0  0  0  0  0  0  0  0  0
   19.7497   74.4375   -2.8153 C   0  0  1  0  0  0  0  0  0  0  0  0
   20.4520   73.7189    1.5446 H   0  0  0  0  0  0  0  0  0  0  0  0
   22.3678   73.7583    1.0606 H   0  0  0  0  0  0  0  0  0  0  0  0
   17.6773   73.7142   -0.4154 H   0  0  0  0  0  0  0  0  0  0  0  0
   19.6690   76.3717   -4.1397 O   0  0  0  0  0  0  0  0  0  0  0  0
   17.7466   75.1602   -3.9496 O   0  0  0  0  0  0  0  0  0  0  0  0
   18.9263   75.3333   -3.6824 C   0  0  0  0  0  0  0  0  0  0  0  0
  1  4  1  0
  1 24  1  0
  1  2  1  1
  1  3  2  0
 25 28  1  0
 25 24  1  0
 25 26  1  6
 25 27  2  0
  6 11  1  0
  6 12  1  0
 29 36  1  0
 29 37  1  0
  9  7  1  6
  7 13  1  0
 10  8  1  6
  8 14  1  0
  4  5  1  0
 36 28  1  6
 33 30  1  1
 30 38  1  0
 34 31  1  1
 31 39  1  0
 35 32  1  6
 32 40  1  0
 41 43  1  0
 15 19  2  0
 42 43  2  0
 16 22  2  0
 12 17  1  1
 17 19  1  0
 17 20  1  0
 18 19  1  0
 18 22  1  0
 18 23  1  0
  9 10  1  0
  9 11  1  0
 10 12  1  0
 11  5  1  1
 33 34  1  0
 33 35  1  0
 34 36  1  0
 35 37  1  0
 37 43  1  6
 20 21  2  0
 21 22  1  0
M  CHG  3   2  -1  26  -1  41  -1
M  END
>  <COMPND>  (131) 
    udp_gluA.pdb 

>  <AUTHOR>  (131) 
    GENERATED BY OPEN BABEL 3.1.1

>  <MASTER>  (131) 
        0    0    0    0    0    0    0    0   56    0   56    0

>  <minimizedAffinity>  (131) 
-6.70523

>  <CNNscore>  (131) 
0.3798925281

>  <CNNaffinity>  (131) 
3.9651501179

>  <CNN_VS>  (131) 
1.5063308477

>  <CNNaffinity_variance>  (131) 
0.5290356874

$$$$
132
     RDKit          3D

 43 45  0  0  0  0  0  0  0  0999 V2000
   18.2843   71.1084   -2.0360 P   0  0  2  0  0  0  0  0  0  0  0  0
   16.8033   71.7598   -2.0029 O   0  0  0  0  0  0  0  0  0  0  0  0
   18.4908   69.9563   -1.0969 O   0  0  0  0  0  0  0  0  0  0  0  0
   19.2702   72.3736   -1.8232 O   0  0  0  0  0  0  0  0  0  0  0  0
   19.7100   72.6750   -0.5116 C   0  0  0  0  0  0  0  0  0  0  0  0
   21.6708   71.8332   -1.6181 O   0  0  0  0  0  0  0  0  0  0  0  0
   23.1146   72.3346    0.9617 O   0  0  0  0  0  0  0  0  0  0  0  0
   23.8436   74.4798   -0.5557 O   0  0  0  0  0  0  0  0  0  0  0  0
   22.0674   73.0887    0.3510 C   0  0  1  0  0  0  0  0  0  0  0  0
   22.6027   73.8653   -0.8334 C   0  0  2  0  0  0  0  0  0  0  0  0
   21.1109   72.1097   -0.3160 C   0  0  1  0  0  0  0  0  0  0  0  0
   22.7099   72.7852   -1.8963 C   0  0  2  0  0  0  0  0  0  0  0  0
   23.7386   72.9388    1.3946 H   0  0  0  0  0  0  0  0  0  0  0  0
   23.7223   75.1595    0.1264 H   0  0  0  0  0  0  0  0  0  0  0  0
   23.8793   71.6757   -4.2154 O   0  0  0  0  0  0  0  0  0  0  0  0
   21.9381   74.8509   -6.9346 O   0  0  0  0  0  0  0  0  0  0  0  0
   22.5268   73.3019   -3.2230 N   0  0  0  0  0  0  0  0  0  0  0  0
   22.9121   73.2588   -5.5674 N   0  0  0  0  0  0  0  0  0  0  0  0
   23.1591   72.6704   -4.3200 C   0  0  0  0  0  0  0  0  0  0  0  0
   21.7276   74.4202   -3.4276 C   0  0  0  0  0  0  0  0  0  0  0  0
   21.5015   74.9695   -4.6226 C   0  0  0  0  0  0  0  0  0  0  0  0
   22.1257   74.3710   -5.8207 C   0  0  0  0  0  0  0  0  0  0  0  0
   23.3433   72.8379   -6.3460 H   0  0  0  0  0  0  0  0  0  0  0  0
   18.4875   70.7481   -3.5986 O   0  0  0  0  0  0  0  0  0  0  0  0
   19.4873   69.7069   -4.3265 P   0  0  2  0  0  0  0  0  0  0  0  0
   18.7089   68.2936   -4.1955 O   0  0  0  0  0  0  0  0  0  0  0  0
   20.8812   69.6992   -3.7687 O   0  0  0  0  0  0  0  0  0  0  0  0
   19.3954   70.0786   -5.8936 O   0  0  0  0  0  0  0  0  0  0  0  0
   17.1099   70.2434   -6.4925 O   0  0  0  0  0  0  0  0  0  0  0  0
   18.9803   70.9984  -10.0980 O   0  0  0  0  0  0  0  0  0  0  0  0
   19.9546   68.8786   -8.3397 O   0  0  0  0  0  0  0  0  0  0  0  0
   17.8060   73.1806   -8.5783 O   0  0  0  0  0  0  0  0  0  0  0  0
   18.8371   71.0053   -8.6777 C   0  0  2  0  0  0  0  0  0  0  0  0
   18.7220   69.5685   -8.1679 C   0  0  2  0  0  0  0  0  0  0  0  0
   17.5721   71.7950   -8.3338 C   0  0  1  0  0  0  0  0  0  0  0  0
   18.3387   69.5423   -6.6876 C   0  0  1  0  0  0  0  0  0  0  0  0
   17.1852   71.6167   -6.8685 C   0  0  1  0  0  0  0  0  0  0  0  0
   19.7779   70.5020  -10.3403 H   0  0  0  0  0  0  0  0  0  0  0  0
   20.2040   68.8916   -9.2767 H   0  0  0  0  0  0  0  0  0  0  0  0
   18.0533   73.3078   -9.5075 H   0  0  0  0  0  0  0  0  0  0  0  0
   15.5154   72.1084   -5.2964 O   0  0  0  0  0  0  0  0  0  0  0  0
   15.0144   72.4654   -7.4920 O   0  0  0  0  0  0  0  0  0  0  0  0
   15.7958   72.1083   -6.6232 C   0  0  0  0  0  0  0  0  0  0  0  0
  1  4  1  0
  1 24  1  0
  1  2  1  6
  1  3  2  0
 25 28  1  0
 25 24  1  0
 25 26  1  6
 25 27  2  0
  6 11  1  0
  6 12  1  0
 29 36  1  0
 29 37  1  0
  9  7  1  6
  7 13  1  0
 10  8  1  1
  8 14  1  0
  4  5  1  0
 36 28  1  1
 33 30  1  6
 30 38  1  0
 34 31  1  1
 31 39  1  0
 35 32  1  1
 32 40  1  0
 41 43  1  0
 15 19  2  0
 42 43  2  0
 16 22  2  0
 12 17  1  6
 17 19  1  0
 17 20  1  0
 18 19  1  0
 18 22  1  0
 18 23  1  0
  9 10  1  0
  9 11  1  0
 10 12  1  0
 11  5  1  6
 33 34  1  0
 33 35  1  0
 34 36  1  0
 35 37  1  0
 37 43  1  6
 20 21  2  0
 21 22  1  0
M  CHG  3   2  -1  26  -1  41  -1
M  END
>  <COMPND>  (132) 
    udp_gluA.pdb 

>  <AUTHOR>  (132) 
    GENERATED BY OPEN BABEL 3.1.1

>  <MASTER>  (132) 
        0    0    0    0    0    0    0    0   56    0   56    0

>  <minimizedAffinity>  (132) 
-7.93199

>  <CNNscore>  (132) 
0.3596851528

>  <CNNaffinity>  (132) 
4.1592721939

>  <CNN_VS>  (132) 
1.4960284233

>  <CNNaffinity_variance>  (132) 
0.3000073731

$$$$
133
     RDKit          3D

 43 45  0  0  0  0  0  0  0  0999 V2000
   18.3016   71.3293   -2.0795 P   0  0  2  0  0  0  0  0  0  0  0  0
   17.4703   72.7144   -2.1752 O   0  0  0  0  0  0  0  0  0  0  0  0
   17.6233   70.2352   -1.3083 O   0  0  0  0  0  0  0  0  0  0  0  0
   19.7521   71.7842   -1.5254 O   0  0  0  0  0  0  0  0  0  0  0  0
   20.5012   72.7193   -2.2797 C   0  0  0  0  0  0  0  0  0  0  0  0
   22.6599   73.7363   -1.9910 O   0  0  0  0  0  0  0  0  0  0  0  0
   23.5436   71.1021   -0.8632 O   0  0  0  0  0  0  0  0  0  0  0  0
   23.1400   72.6040    1.3767 O   0  0  0  0  0  0  0  0  0  0  0  0
   22.2837   71.7620   -0.7375 C   0  0  1  0  0  0  0  0  0  0  0  0
   22.3964   72.9287    0.2207 C   0  0  2  0  0  0  0  0  0  0  0  0
   21.9857   72.4609   -2.0569 C   0  0  1  0  0  0  0  0  0  0  0  0
   23.0805   73.9780   -0.6390 C   0  0  2  0  0  0  0  0  0  0  0  0
   23.7556   70.6482   -0.0322 H   0  0  0  0  0  0  0  0  0  0  0  0
   22.6627   71.9328    1.8902 H   0  0  0  0  0  0  0  0  0  0  0  0
   24.8728   75.8905    0.4129 O   0  0  0  0  0  0  0  0  0  0  0  0
   21.5603   79.0776    0.7505 O   0  0  0  0  0  0  0  0  0  0  0  0
   22.7131   75.3151   -0.2677 N   0  0  0  0  0  0  0  0  0  0  0  0
   23.2211   77.4757    0.5810 N   0  0  0  0  0  0  0  0  0  0  0  0
   23.6901   76.1972    0.2515 C   0  0  0  0  0  0  0  0  0  0  0  0
   21.3992   75.7411   -0.4203 C   0  0  0  0  0  0  0  0  0  0  0  0
   20.9672   76.9629   -0.1019 C   0  0  0  0  0  0  0  0  0  0  0  0
   21.9244   77.9453    0.4478 C   0  0  0  0  0  0  0  0  0  0  0  0
   23.8825   78.1068    0.9462 H   0  0  0  0  0  0  0  0  0  0  0  0
   18.5987   70.9765   -3.6287 O   0  0  0  0  0  0  0  0  0  0  0  0
   19.4442   69.7732   -4.3000 P   0  0  2  0  0  0  0  0  0  0  0  0
   18.4834   68.4867   -4.0947 O   0  0  0  0  0  0  0  0  0  0  0  0
   20.8280   69.6068   -3.7420 O   0  0  0  0  0  0  0  0  0  0  0  0
   19.3926   70.0711   -5.8847 O   0  0  0  0  0  0  0  0  0  0  0  0
   17.1047   70.2567   -6.4679 O   0  0  0  0  0  0  0  0  0  0  0  0
   18.9569   70.9847  -10.0883 O   0  0  0  0  0  0  0  0  0  0  0  0
   19.9228   68.8597   -8.3316 O   0  0  0  0  0  0  0  0  0  0  0  0
   17.8146   73.1820   -8.5657 O   0  0  0  0  0  0  0  0  0  0  0  0
   18.8237   70.9965   -8.6670 C   0  0  2  0  0  0  0  0  0  0  0  0
   18.6983   69.5621   -8.1529 C   0  0  2  0  0  0  0  0  0  0  0  0
   17.5690   71.7993   -8.3162 C   0  0  1  0  0  0  0  0  0  0  0  0
   18.3252   69.5432   -6.6699 C   0  0  1  0  0  0  0  0  0  0  0  0
   17.1907   71.6283   -6.8478 C   0  0  1  0  0  0  0  0  0  0  0  0
   19.7478   70.4800  -10.3350 H   0  0  0  0  0  0  0  0  0  0  0  0
   20.1657   68.8681   -9.2704 H   0  0  0  0  0  0  0  0  0  0  0  0
   18.0565   73.3045   -9.4970 H   0  0  0  0  0  0  0  0  0  0  0  0
   15.5524   72.1811   -5.2629 O   0  0  0  0  0  0  0  0  0  0  0  0
   15.0117   72.4643   -7.4599 O   0  0  0  0  0  0  0  0  0  0  0  0
   15.8079   72.1341   -6.5938 C   0  0  0  0  0  0  0  0  0  0  0  0
  1  4  1  0
  1 24  1  0
  1  2  1  6
  1  3  2  0
 25 28  1  0
 25 24  1  0
 25 26  1  6
 25 27  2  0
  6 11  1  0
  6 12  1  0
 29 36  1  0
 29 37  1  0
  9  7  1  6
  7 13  1  0
 10  8  1  1
  8 14  1  0
  4  5  1  0
 36 28  1  1
 33 30  1  6
 30 38  1  0
 34 31  1  1
 31 39  1  0
 35 32  1  1
 32 40  1  0
 41 43  1  0
 15 19  2  0
 42 43  2  0
 16 22  2  0
 12 17  1  1
 17 19  1  0
 17 20  1  0
 18 19  1  0
 18 22  1  0
 18 23  1  0
  9 10  1  0
  9 11  1  0
 10 12  1  0
 11  5  1  1
 33 34  1  0
 33 35  1  0
 34 36  1  0
 35 37  1  0
 37 43  1  6
 20 21  2  0
 21 22  1  0
M  CHG  3   2  -1  26  -1  41  -1
M  END
>  <COMPND>  (133) 
    udp_gluA.pdb 

>  <AUTHOR>  (133) 
    GENERATED BY OPEN BABEL 3.1.1

>  <MASTER>  (133) 
        0    0    0    0    0    0    0    0   56    0   56    0

>  <minimizedAffinity>  (133) 
-7.39654

>  <CNNscore>  (133) 
0.3571875393

>  <CNNaffinity>  (133) 
4.1423330307

>  <CNN_VS>  (133) 
1.4795897007

>  <CNNaffinity_variance>  (133) 
0.0524101369

$$$$
134
     RDKit          3D

 43 45  0  0  0  0  0  0  0  0999 V2000
   22.5171   71.3363   -2.0330 P   0  0  2  0  0  0  0  0  0  0  0  0
   23.6903   70.6922   -2.9428 O   0  0  0  0  0  0  0  0  0  0  0  0
   22.1610   70.5479   -0.8069 O   0  0  0  0  0  0  0  0  0  0  0  0
   21.3098   71.5915   -3.0795 O   0  0  0  0  0  0  0  0  0  0  0  0
   20.6465   70.4698   -3.6332 C   0  0  0  0  0  0  0  0  0  0  0  0
   18.4741   71.1261   -4.4253 O   0  0  0  0  0  0  0  0  0  0  0  0
   17.3609   69.3849   -2.2526 O   0  0  0  0  0  0  0  0  0  0  0  0
   17.0953   67.8168   -4.4677 O   0  0  0  0  0  0  0  0  0  0  0  0
   18.5231   69.1916   -3.0593 C   0  0  1  0  0  0  0  0  0  0  0  0
   18.1255   68.7829   -4.4618 C   0  0  2  0  0  0  0  0  0  0  0  0
   19.1639   70.5527   -3.2936 C   0  0  1  0  0  0  0  0  0  0  0  0
   17.6887   70.1073   -5.0644 C   0  0  2  0  0  0  0  0  0  0  0  0
   16.9342   68.5288   -2.0894 H   0  0  0  0  0  0  0  0  0  0  0  0
   17.4231   66.9923   -4.0744 H   0  0  0  0  0  0  0  0  0  0  0  0
   16.0596   71.5312   -6.8796 O   0  0  0  0  0  0  0  0  0  0  0  0
   18.6425   70.2588  -10.4787 O   0  0  0  0  0  0  0  0  0  0  0  0
   17.9125   70.1651   -6.4812 N   0  0  0  0  0  0  0  0  0  0  0  0
   17.3470   70.8953   -8.6705 N   0  0  0  0  0  0  0  0  0  0  0  0
   17.0346   70.9087   -7.3048 C   0  0  0  0  0  0  0  0  0  0  0  0
   18.9918   69.4921   -7.0409 C   0  0  0  0  0  0  0  0  0  0  0  0
   19.2768   69.4887   -8.3445 C   0  0  0  0  0  0  0  0  0  0  0  0
   18.4085   70.2407   -9.2740 C   0  0  0  0  0  0  0  0  0  0  0  0
   16.7488   71.4044   -9.2641 H   0  0  0  0  0  0  0  0  0  0  0  0
   23.0642   72.8286   -1.7386 O   0  0  0  0  0  0  0  0  0  0  0  0
   22.6873   74.2494   -2.4117 P   0  0  2  0  0  0  0  0  0  0  0  0
   23.9199   75.2038   -1.9757 O   0  0  0  0  0  0  0  0  0  0  0  0
   21.3337   74.7730   -2.0275 O   0  0  0  0  0  0  0  0  0  0  0  0
   22.8912   74.0189   -3.9953 O   0  0  0  0  0  0  0  0  0  0  0  0
   23.2253   75.4251   -5.8715 O   0  0  0  0  0  0  0  0  0  0  0  0
   20.5960   72.6190   -7.3817 O   0  0  0  0  0  0  0  0  0  0  0  0
   20.2179   73.7092   -4.6978 O   0  0  0  0  0  0  0  0  0  0  0  0
   23.4118   72.5135   -8.0964 O   0  0  0  0  0  0  0  0  0  0  0  0
   21.6556   73.0996   -6.5545 C   0  0  2  0  0  0  0  0  0  0  0  0
   21.1352   74.2225   -5.6569 C   0  0  2  0  0  0  0  0  0  0  0  0
   22.7687   73.6200   -7.4667 C   0  0  1  0  0  0  0  0  0  0  0  0
   22.2854   74.9154   -4.9249 C   0  0  1  0  0  0  0  0  0  0  0  0
   23.8122   74.4070   -6.6790 C   0  0  1  0  0  0  0  0  0  0  0  0
   19.8769   72.2831   -6.8237 H   0  0  0  0  0  0  0  0  0  0  0  0
   19.4855   73.2679   -5.1554 H   0  0  0  0  0  0  0  0  0  0  0  0
   22.7585   72.0042   -8.6010 H   0  0  0  0  0  0  0  0  0  0  0  0
   25.0942   76.3410   -7.0216 O   0  0  0  0  0  0  0  0  0  0  0  0
   25.0331   74.8195   -8.7188 O   0  0  0  0  0  0  0  0  0  0  0  0
   24.7004   75.1791   -7.5994 C   0  0  0  0  0  0  0  0  0  0  0  0
  1  4  1  0
  1 24  1  0
  1  2  1  6
  1  3  2  0
 25 28  1  0
 25 24  1  0
 25 26  1  1
 25 27  2  0
  6 11  1  0
  6 12  1  0
 29 36  1  0
 29 37  1  0
  9  7  1  1
  7 13  1  0
 10  8  1  1
  8 14  1  0
  4  5  1  0
 36 28  1  1
 33 30  1  6
 30 38  1  0
 34 31  1  1
 31 39  1  0
 35 32  1  1
 32 40  1  0
 41 43  1  0
 15 19  2  0
 42 43  2  0
 16 22  2  0
 12 17  1  6
 17 19  1  0
 17 20  1  0
 18 19  1  0
 18 22  1  0
 18 23  1  0
  9 10  1  0
  9 11  1  0
 10 12  1  0
 11  5  1  6
 33 34  1  0
 33 35  1  0
 34 36  1  0
 35 37  1  0
 37 43  1  6
 20 21  2  0
 21 22  1  0
M  CHG  3   2  -1  26  -1  41  -1
M  END
>  <COMPND>  (134) 
    udp_gluA.pdb 

>  <AUTHOR>  (134) 
    GENERATED BY OPEN BABEL 3.1.1

>  <MASTER>  (134) 
        0    0    0    0    0    0    0    0   56    0   56    0

>  <minimizedAffinity>  (134) 
-7.98220

>  <CNNscore>  (134) 
0.3418175280

>  <CNNaffinity>  (134) 
4.1060304642

>  <CNN_VS>  (134) 
1.4035131931

>  <CNNaffinity_variance>  (134) 
0.5913649201

$$$$
135
     RDKit          3D

 43 45  0  0  0  0  0  0  0  0999 V2000
   21.2191   72.5444   -3.6481 P   0  0  2  0  0  0  0  0  0  0  0  0
   22.5327   71.6983   -4.0694 O   0  0  0  0  0  0  0  0  0  0  0  0
   21.2138   73.0432   -2.2328 O   0  0  0  0  0  0  0  0  0  0  0  0
   19.9871   71.5785   -4.0572 O   0  0  0  0  0  0  0  0  0  0  0  0
   19.6831   70.4787   -3.2191 C   0  0  0  0  0  0  0  0  0  0  0  0
   17.5797   70.8912   -4.3069 O   0  0  0  0  0  0  0  0  0  0  0  0
   16.4161   68.8822   -2.4093 O   0  0  0  0  0  0  0  0  0  0  0  0
   16.7008   67.4382   -4.7049 O   0  0  0  0  0  0  0  0  0  0  0  0
   17.6993   68.8965   -3.0350 C   0  0  1  0  0  0  0  0  0  0  0  0
   17.5729   68.5297   -4.4985 C   0  0  2  0  0  0  0  0  0  0  0  0
   18.1699   70.3427   -3.1085 C   0  0  1  0  0  0  0  0  0  0  0  0
   17.0474   69.8206   -5.1029 C   0  0  2  0  0  0  0  0  0  0  0  0
   16.0946   67.9684   -2.3510 H   0  0  0  0  0  0  0  0  0  0  0  0
   17.0800   66.6407   -4.3020 H   0  0  0  0  0  0  0  0  0  0  0  0
   15.6584   71.3749   -7.0085 O   0  0  0  0  0  0  0  0  0  0  0  0
   18.7460   70.4317  -10.2980 O   0  0  0  0  0  0  0  0  0  0  0  0
   17.4660   69.9983   -6.4646 N   0  0  0  0  0  0  0  0  0  0  0  0
   17.1970   70.9028   -8.6453 N   0  0  0  0  0  0  0  0  0  0  0  0
   16.6963   70.7994   -7.3408 C   0  0  0  0  0  0  0  0  0  0  0  0
   18.6271   69.3848   -6.9189 C   0  0  0  0  0  0  0  0  0  0  0  0
   19.0917   69.4927   -8.1652 C   0  0  0  0  0  0  0  0  0  0  0  0
   18.3462   70.3110   -9.1440 C   0  0  0  0  0  0  0  0  0  0  0  0
   16.6770   71.4537   -9.2742 H   0  0  0  0  0  0  0  0  0  0  0  0
   21.1593   73.7052   -4.7714 O   0  0  0  0  0  0  0  0  0  0  0  0
   20.9481   73.6233   -6.3721 P   0  0  2  0  0  0  0  0  0  0  0  0
   19.6584   74.5687   -6.6238 O   0  0  0  0  0  0  0  0  0  0  0  0
   20.8042   72.2266   -6.9036 O   0  0  0  0  0  0  0  0  0  0  0  0
   22.1867   74.4510   -6.9912 O   0  0  0  0  0  0  0  0  0  0  0  0
   23.6697   73.9556   -8.7701 O   0  0  0  0  0  0  0  0  0  0  0  0
   26.1370   76.0019   -6.1638 O   0  0  0  0  0  0  0  0  0  0  0  0
   24.2353   74.0251   -5.1588 O   0  0  0  0  0  0  0  0  0  0  0  0
   25.1388   77.3111   -8.5598 O   0  0  0  0  0  0  0  0  0  0  0  0
   24.9049   75.6752   -6.8065 C   0  0  2  0  0  0  0  0  0  0  0  0
   24.5569   74.2119   -6.5322 C   0  0  2  0  0  0  0  0  0  0  0  0
   25.0788   75.9083   -8.3090 C   0  0  1  0  0  0  0  0  0  0  0  0
   23.3713   73.7620   -7.3870 C   0  0  1  0  0  0  0  0  0  0  0  0
   23.9155   75.3203   -9.1023 C   0  0  1  0  0  0  0  0  0  0  0  0
   26.0504   75.8614   -5.2078 H   0  0  0  0  0  0  0  0  0  0  0  0
   24.9832   74.3089   -4.6105 H   0  0  0  0  0  0  0  0  0  0  0  0
   25.8752   77.6976   -8.0605 H   0  0  0  0  0  0  0  0  0  0  0  0
   23.8994   76.4131  -11.1777 O   0  0  0  0  0  0  0  0  0  0  0  0
   24.7563   74.3008  -11.1210 O   0  0  0  0  0  0  0  0  0  0  0  0
   24.2445   75.2571  -10.5583 C   0  0  0  0  0  0  0  0  0  0  0  0
  1  4  1  0
  1 24  1  0
  1  2  1  6
  1  3  2  0
 25 28  1  0
 25 24  1  0
 25 26  1  1
 25 27  2  0
  6 11  1  0
  6 12  1  0
 29 36  1  0
 29 37  1  0
  9  7  1  1
  7 13  1  0
 10  8  1  1
  8 14  1  0
  4  5  1  0
 36 28  1  1
 33 30  1  1
 30 38  1  0
 34 31  1  1
 31 39  1  0
 35 32  1  1
 32 40  1  0
 41 43  1  0
 15 19  2  0
 42 43  2  0
 16 22  2  0
 12 17  1  6
 17 19  1  0
 17 20  1  0
 18 19  1  0
 18 22  1  0
 18 23  1  0
  9 10  1  0
  9 11  1  0
 10 12  1  0
 11  5  1  6
 33 34  1  0
 33 35  1  0
 34 36  1  0
 35 37  1  0
 37 43  1  6
 20 21  2  0
 21 22  1  0
M  CHG  3   2  -1  26  -1  41  -1
M  END
>  <COMPND>  (135) 
    udp_gluA.pdb 

>  <AUTHOR>  (135) 
    GENERATED BY OPEN BABEL 3.1.1

>  <MASTER>  (135) 
        0    0    0    0    0    0    0    0   56    0   56    0

>  <minimizedAffinity>  (135) 
-7.25293

>  <CNNscore>  (135) 
0.3390031755

>  <CNNaffinity>  (135) 
4.2656011581

>  <CNN_VS>  (135) 
1.4460523129

>  <CNNaffinity_variance>  (135) 
0.2347967625

$$$$
136
     RDKit          3D

 43 45  0  0  0  0  0  0  0  0999 V2000
   22.8159   71.2998   -2.1517 P   0  0  2  0  0  0  0  0  0  0  0  0
   24.0465   70.4764   -2.8048 O   0  0  0  0  0  0  0  0  0  0  0  0
   23.0220   71.7225   -0.7266 O   0  0  0  0  0  0  0  0  0  0  0  0
   21.5292   70.3581   -2.4262 O   0  0  0  0  0  0  0  0  0  0  0  0
   20.7473   70.6016   -3.5812 C   0  0  0  0  0  0  0  0  0  0  0  0
   18.5314   71.1927   -4.3009 O   0  0  0  0  0  0  0  0  0  0  0  0
   17.5440   69.5129   -2.0217 O   0  0  0  0  0  0  0  0  0  0  0  0
   17.2122   67.8617   -4.1664 O   0  0  0  0  0  0  0  0  0  0  0  0
   18.6738   69.3099   -2.8707 C   0  0  1  0  0  0  0  0  0  0  0  0
   18.2240   68.8443   -4.2394 C   0  0  2  0  0  0  0  0  0  0  0  0
   19.2793   70.6721   -3.1807 C   0  0  1  0  0  0  0  0  0  0  0  0
   17.7379   70.1386   -4.8688 C   0  0  2  0  0  0  0  0  0  0  0  0
   17.1402   68.6563   -1.8099 H   0  0  0  0  0  0  0  0  0  0  0  0
   17.5714   67.0574   -3.7588 H   0  0  0  0  0  0  0  0  0  0  0  0
   15.9101   71.3140   -6.6728 O   0  0  0  0  0  0  0  0  0  0  0  0
   18.4610   70.1184  -10.3208 O   0  0  0  0  0  0  0  0  0  0  0  0
   17.8998   70.1490   -6.2952 N   0  0  0  0  0  0  0  0  0  0  0  0
   17.1818   70.7165   -8.4880 N   0  0  0  0  0  0  0  0  0  0  0  0
   16.9231   70.7662   -7.1119 C   0  0  0  0  0  0  0  0  0  0  0  0
   19.0160   69.5544   -6.8708 C   0  0  0  0  0  0  0  0  0  0  0  0
   19.2490   69.5151   -8.1842 C   0  0  0  0  0  0  0  0  0  0  0  0
   18.2769   70.1363   -9.1075 C   0  0  0  0  0  0  0  0  0  0  0  0
   16.5149   71.1379   -9.0771 H   0  0  0  0  0  0  0  0  0  0  0  0
   22.6026   72.5189   -3.1914 O   0  0  0  0  0  0  0  0  0  0  0  0
   22.2865   74.0845   -2.9410 P   0  0  2  0  0  0  0  0  0  0  0  0
   23.6133   74.6123   -2.1784 O   0  0  0  0  0  0  0  0  0  0  0  0
   21.0049   74.3437   -2.2034 O   0  0  0  0  0  0  0  0  0  0  0  0
   22.3639   74.7570   -4.4054 O   0  0  0  0  0  0  0  0  0  0  0  0
   20.7618   74.8956   -6.1440 O   0  0  0  0  0  0  0  0  0  0  0  0
   24.2877   74.5769   -8.2734 O   0  0  0  0  0  0  0  0  0  0  0  0
   23.8364   72.9323   -5.9015 O   0  0  0  0  0  0  0  0  0  0  0  0
   22.9417   77.1443   -8.0554 O   0  0  0  0  0  0  0  0  0  0  0  0
   23.4574   74.9607   -7.1774 C   0  0  2  0  0  0  0  0  0  0  0  0
   22.8370   73.7149   -6.5446 C   0  0  2  0  0  0  0  0  0  0  0  0
   22.3631   75.8860   -7.7144 C   0  0  1  0  0  0  0  0  0  0  0  0
   21.7675   74.0964   -5.5201 C   0  0  1  0  0  0  0  0  0  0  0  0
   21.2698   76.1173   -6.6754 C   0  0  1  0  0  0  0  0  0  0  0  0
   24.9907   73.9883   -7.9561 H   0  0  0  0  0  0  0  0  0  0  0  0
   24.5184   72.6868   -6.5457 H   0  0  0  0  0  0  0  0  0  0  0  0
   23.6394   77.0111   -8.7160 H   0  0  0  0  0  0  0  0  0  0  0  0
   20.3444   77.9877   -7.7465 O   0  0  0  0  0  0  0  0  0  0  0  0
   18.9727   76.1978   -7.4091 O   0  0  0  0  0  0  0  0  0  0  0  0
   20.0640   76.7371   -7.3033 C   0  0  0  0  0  0  0  0  0  0  0  0
  1  4  1  0
  1 24  1  0
  1  2  1  6
  1  3  2  0
 25 28  1  0
 25 24  1  0
 25 26  1  1
 25 27  2  0
  6 11  1  0
  6 12  1  0
 29 36  1  0
 29 37  1  0
  9  7  1  1
  7 13  1  0
 10  8  1  1
  8 14  1  0
  4  5  1  0
 36 28  1  1
 33 30  1  6
 30 38  1  0
 34 31  1  1
 31 39  1  0
 35 32  1  1
 32 40  1  0
 41 43  1  0
 15 19  2  0
 42 43  2  0
 16 22  2  0
 12 17  1  6
 17 19  1  0
 17 20  1  0
 18 19  1  0
 18 22  1  0
 18 23  1  0
  9 10  1  0
  9 11  1  0
 10 12  1  0
 11  5  1  6
 33 34  1  0
 33 35  1  0
 34 36  1  0
 35 37  1  0
 37 43  1  6
 20 21  2  0
 21 22  1  0
M  CHG  3   2  -1  26  -1  41  -1
M  END
>  <COMPND>  (136) 
    udp_gluA.pdb 

>  <AUTHOR>  (136) 
    GENERATED BY OPEN BABEL 3.1.1

>  <MASTER>  (136) 
        0    0    0    0    0    0    0    0   56    0   56    0

>  <minimizedAffinity>  (136) 
-7.10480

>  <CNNscore>  (136) 
0.3299590945

>  <CNNaffinity>  (136) 
4.2366366386

>  <CNN_VS>  (136) 
1.3979167938

>  <CNNaffinity_variance>  (136) 
0.3708499074

$$$$
137
     RDKit          3D

 43 45  0  0  0  0  0  0  0  0999 V2000
   18.3544   69.3390   -3.1220 P   0  0  2  0  0  0  0  0  0  0  0  0
   19.3768   68.2458   -3.7372 O   0  0  0  0  0  0  0  0  0  0  0  0
   17.4789   68.8339   -2.0129 O   0  0  0  0  0  0  0  0  0  0  0  0
   17.5807   69.9203   -4.4187 O   0  0  0  0  0  0  0  0  0  0  0  0
   18.3447   70.5148   -5.4518 C   0  0  0  0  0  0  0  0  0  0  0  0
   16.3512   70.4547   -6.7933 O   0  0  0  0  0  0  0  0  0  0  0  0
   18.1706   70.0880   -9.1485 O   0  0  0  0  0  0  0  0  0  0  0  0
   17.5347   72.7358   -9.2933 O   0  0  0  0  0  0  0  0  0  0  0  0
   18.3639   70.8715   -7.9707 C   0  0  1  0  0  0  0  0  0  0  0  0
   17.5059   72.1179   -8.0237 C   0  0  2  0  0  0  0  0  0  0  0  0
   17.7547   70.1151   -6.7981 C   0  0  1  0  0  0  0  0  0  0  0  0
   16.1333   71.5711   -7.6704 C   0  0  2  0  0  0  0  0  0  0  0  0
   18.5517   70.5510   -9.9114 H   0  0  0  0  0  0  0  0  0  0  0  0
   18.4294   73.0673   -9.4713 H   0  0  0  0  0  0  0  0  0  0  0  0
   14.3411   73.3224   -8.9733 O   0  0  0  0  0  0  0  0  0  0  0  0
   13.0403   75.2464   -4.9921 O   0  0  0  0  0  0  0  0  0  0  0  0
   15.3139   72.5397   -6.9986 N   0  0  0  0  0  0  0  0  0  0  0  0
   13.6957   74.2797   -6.9893 N   0  0  0  0  0  0  0  0  0  0  0  0
   14.4471   73.3714   -7.7464 C   0  0  0  0  0  0  0  0  0  0  0  0
   15.3723   72.6576   -5.6153 C   0  0  0  0  0  0  0  0  0  0  0  0
   14.6497   73.5281   -4.9075 C   0  0  0  0  0  0  0  0  0  0  0  0
   13.7198   74.4344   -5.6127 C   0  0  0  0  0  0  0  0  0  0  0  0
   13.0865   74.8708   -7.4881 H   0  0  0  0  0  0  0  0  0  0  0  0
   19.3325   70.5569   -2.7063 O   0  0  0  0  0  0  0  0  0  0  0  0
   19.7899   71.1029   -1.2549 P   0  0  2  0  0  0  0  0  0  0  0  0
   20.6730   69.8826   -0.6622 O   0  0  0  0  0  0  0  0  0  0  0  0
   18.6537   71.5300   -0.3715 O   0  0  0  0  0  0  0  0  0  0  0  0
   20.8630   72.2644   -1.5742 O   0  0  0  0  0  0  0  0  0  0  0  0
   22.7459   72.2406   -3.0106 O   0  0  0  0  0  0  0  0  0  0  0  0
   23.9985   74.8067   -0.0249 O   0  0  0  0  0  0  0  0  0  0  0  0
   22.5461   72.3602    0.6381 O   0  0  0  0  0  0  0  0  0  0  0  0
   23.1760   75.8619   -2.6057 O   0  0  0  0  0  0  0  0  0  0  0  0
   23.0539   74.1755   -0.8893 C   0  0  2  0  0  0  0  0  0  0  0  0
   23.0697   72.6657   -0.6493 C   0  0  2  0  0  0  0  0  0  0  0  0
   23.4512   74.4891   -2.3335 C   0  0  1  0  0  0  0  0  0  0  0  0
   22.2442   71.9346   -1.7090 C   0  0  1  0  0  0  0  0  0  0  0  0
   22.6721   73.6295   -3.3248 C   0  0  1  0  0  0  0  0  0  0  0  0
   23.7663   74.6212    0.8987 H   0  0  0  0  0  0  0  0  0  0  0  0
   23.0650   72.8210    1.3154 H   0  0  0  0  0  0  0  0  0  0  0  0
   23.6658   76.4198   -1.9815 H   0  0  0  0  0  0  0  0  0  0  0  0
   23.2081   74.9581   -5.1820 O   0  0  0  0  0  0  0  0  0  0  0  0
   23.7950   72.7566   -5.2738 O   0  0  0  0  0  0  0  0  0  0  0  0
   23.2869   73.6989   -4.6847 C   0  0  0  0  0  0  0  0  0  0  0  0
  1  4  1  0
  1 24  1  0
  1  2  1  6
  1  3  2  0
 25 28  1  0
 25 24  1  0
 25 26  1  1
 25 27  2  0
  6 11  1  0
  6 12  1  0
 29 36  1  0
 29 37  1  0
  9  7  1  6
  7 13  1  0
 10  8  1  6
  8 14  1  0
  4  5  1  0
 36 28  1  6
 33 30  1  1
 30 38  1  0
 34 31  1  1
 31 39  1  0
 35 32  1  6
 32 40  1  0
 41 43  1  0
 15 19  2  0
 42 43  2  0
 16 22  2  0
 12 17  1  1
 17 19  1  0
 17 20  1  0
 18 19  1  0
 18 22  1  0
 18 23  1  0
  9 10  1  0
  9 11  1  0
 10 12  1  0
 11  5  1  1
 33 34  1  0
 33 35  1  0
 34 36  1  0
 35 37  1  0
 37 43  1  6
 20 21  2  0
 21 22  1  0
M  CHG  3   2  -1  26  -1  41  -1
M  END
>  <COMPND>  (137) 
    udp_gluA.pdb 

>  <AUTHOR>  (137) 
    GENERATED BY OPEN BABEL 3.1.1

>  <MASTER>  (137) 
        0    0    0    0    0    0    0    0   56    0   56    0

>  <minimizedAffinity>  (137) 
-7.32188

>  <CNNscore>  (137) 
0.3216358423

>  <CNNaffinity>  (137) 
4.0499925613

>  <CNN_VS>  (137) 
1.3026227951

>  <CNNaffinity_variance>  (137) 
0.1992726624

$$$$
138
     RDKit          3D

 43 45  0  0  0  0  0  0  0  0999 V2000
   15.5332   70.8549   -2.2332 P   0  0  2  0  0  0  0  0  0  0  0  0
   15.0505   72.1335   -3.0999 O   0  0  0  0  0  0  0  0  0  0  0  0
   14.5621   70.3971   -1.1847 O   0  0  0  0  0  0  0  0  0  0  0  0
   16.9986   71.2807   -1.6957 O   0  0  0  0  0  0  0  0  0  0  0  0
   17.2720   72.6553   -1.4947 C   0  0  0  0  0  0  0  0  0  0  0  0
   18.9409   72.0124    0.1112 O   0  0  0  0  0  0  0  0  0  0  0  0
   18.1916   74.5001    1.6083 O   0  0  0  0  0  0  0  0  0  0  0  0
   20.4851   75.2405    0.3324 O   0  0  0  0  0  0  0  0  0  0  0  0
   18.2561   74.2783    0.1994 C   0  0  1  0  0  0  0  0  0  0  0  0
   19.6985   74.2268   -0.2577 C   0  0  2  0  0  0  0  0  0  0  0  0
   17.7842   72.8568   -0.0744 C   0  0  1  0  0  0  0  0  0  0  0  0
   20.1179   72.8332    0.1780 C   0  0  2  0  0  0  0  0  0  0  0  0
   18.4885   75.4022    1.8079 H   0  0  0  0  0  0  0  0  0  0  0  0
   20.1791   76.1082    0.0235 H   0  0  0  0  0  0  0  0  0  0  0  0
   22.8963   73.0635    0.6294 O   0  0  0  0  0  0  0  0  0  0  0  0
   23.8979   70.6426   -3.1627 O   0  0  0  0  0  0  0  0  0  0  0  0
   21.1270   72.2727   -0.6754 N   0  0  0  0  0  0  0  0  0  0  0  0
   23.3925   71.8584   -1.2603 N   0  0  0  0  0  0  0  0  0  0  0  0
   22.4952   72.4460   -0.3589 C   0  0  0  0  0  0  0  0  0  0  0  0
   20.7583   71.5596   -1.8097 C   0  0  0  0  0  0  0  0  0  0  0  0
   21.6252   71.0052   -2.6594 C   0  0  0  0  0  0  0  0  0  0  0  0
   23.0739   71.1407   -2.4017 C   0  0  0  0  0  0  0  0  0  0  0  0
   24.3507   71.9675   -1.0620 H   0  0  0  0  0  0  0  0  0  0  0  0
   15.8682   69.7532   -3.3676 O   0  0  0  0  0  0  0  0  0  0  0  0
   17.1857   68.8489   -3.6126 P   0  0  2  0  0  0  0  0  0  0  0  0
   16.6221   67.6001   -4.4748 O   0  0  0  0  0  0  0  0  0  0  0  0
   17.9063   68.4571   -2.3552 O   0  0  0  0  0  0  0  0  0  0  0  0
   18.0755   69.6966   -4.6577 O   0  0  0  0  0  0  0  0  0  0  0  0
   18.7729   71.9208   -5.0770 O   0  0  0  0  0  0  0  0  0  0  0  0
   17.2845   70.7974   -8.7636 O   0  0  0  0  0  0  0  0  0  0  0  0
   15.8712   70.0711   -6.3121 O   0  0  0  0  0  0  0  0  0  0  0  0
   20.1556   70.9379   -8.3303 O   0  0  0  0  0  0  0  0  0  0  0  0
   17.9191   70.6019   -7.4998 C   0  0  2  0  0  0  0  0  0  0  0  0
   16.9556   70.9900   -6.3779 C   0  0  2  0  0  0  0  0  0  0  0  0
   19.1690   71.4838   -7.4568 C   0  0  1  0  0  0  0  0  0  0  0  0
   17.6709   71.0139   -5.0264 C   0  0  1  0  0  0  0  0  0  0  0  0
   19.7513   71.5566   -6.0482 C   0  0  1  0  0  0  0  0  0  0  0  0
   16.4872   70.2468   -8.8138 H   0  0  0  0  0  0  0  0  0  0  0  0
   15.4130   70.0507   -7.1665 H   0  0  0  0  0  0  0  0  0  0  0  0
   19.7976   70.8860   -9.2303 H   0  0  0  0  0  0  0  0  0  0  0  0
   20.2597   73.6880   -5.2114 O   0  0  0  0  0  0  0  0  0  0  0  0
   21.8675   72.6448   -6.4467 O   0  0  0  0  0  0  0  0  0  0  0  0
   20.7535   72.6598   -5.9448 C   0  0  0  0  0  0  0  0  0  0  0  0
  1  4  1  0
  1 24  1  0
  1  2  1  6
  1  3  2  0
 25 28  1  0
 25 24  1  0
 25 26  1  6
 25 27  2  0
  6 11  1  0
  6 12  1  0
 29 36  1  0
 29 37  1  0
  9  7  1  1
  7 13  1  0
 10  8  1  1
  8 14  1  0
  4  5  1  0
 36 28  1  6
 33 30  1  6
 30 38  1  0
 34 31  1  1
 31 39  1  0
 35 32  1  6
 32 40  1  0
 41 43  1  0
 15 19  2  0
 42 43  2  0
 16 22  2  0
 12 17  1  6
 17 19  1  0
 17 20  1  0
 18 19  1  0
 18 22  1  0
 18 23  1  0
  9 10  1  0
  9 11  1  0
 10 12  1  0
 11  5  1  6
 33 34  1  0
 33 35  1  0
 34 36  1  0
 35 37  1  0
 37 43  1  6
 20 21  2  0
 21 22  1  0
M  CHG  3   2  -1  26  -1  41  -1
M  END
>  <COMPND>  (138) 
    udp_gluA.pdb 

>  <AUTHOR>  (138) 
    GENERATED BY OPEN BABEL 3.1.1

>  <MASTER>  (138) 
        0    0    0    0    0    0    0    0   56    0   56    0

>  <minimizedAffinity>  (138) 
-7.39587

>  <CNNscore>  (138) 
0.3212219179

>  <CNNaffinity>  (138) 
3.8397984505

>  <CNN_VS>  (138) 
1.2334274054

>  <CNNaffinity_variance>  (138) 
0.6732733846

$$$$
139
     RDKit          3D

 43 45  0  0  0  0  0  0  0  0999 V2000
   20.2776   70.8746   -1.5342 P   0  0  2  0  0  0  0  0  0  0  0  0
   21.6112   70.3243   -0.8010 O   0  0  0  0  0  0  0  0  0  0  0  0
   19.6596   72.0858   -0.8995 O   0  0  0  0  0  0  0  0  0  0  0  0
   19.3244   69.5712   -1.6362 O   0  0  0  0  0  0  0  0  0  0  0  0
   19.3332   68.8194   -2.8359 C   0  0  0  0  0  0  0  0  0  0  0  0
   17.0081   68.9109   -2.2331 O   0  0  0  0  0  0  0  0  0  0  0  0
   16.5050   67.2165   -4.6554 O   0  0  0  0  0  0  0  0  0  0  0  0
   15.8188   69.7102   -5.5195 O   0  0  0  0  0  0  0  0  0  0  0  0
   17.4610   68.2598   -4.4651 C   0  0  1  0  0  0  0  0  0  0  0  0
   16.7749   69.6093   -4.4850 C   0  0  2  0  0  0  0  0  0  0  0  0
   17.9645   68.1796   -3.0304 C   0  0  1  0  0  0  0  0  0  0  0  0
   16.1484   69.6651   -3.1022 C   0  0  2  0  0  0  0  0  0  0  0  0
   16.1689   67.2475   -5.5652 H   0  0  0  0  0  0  0  0  0  0  0  0
   16.2673   69.6699   -6.3793 H   0  0  0  0  0  0  0  0  0  0  0  0
   14.3074   70.4882   -1.1249 O   0  0  0  0  0  0  0  0  0  0  0  0
   15.8244   74.8383   -1.2635 O   0  0  0  0  0  0  0  0  0  0  0  0
   16.0408   71.0068   -2.6031 N   0  0  0  0  0  0  0  0  0  0  0  0
   15.0640   72.6542   -1.1966 N   0  0  0  0  0  0  0  0  0  0  0  0
   15.0821   71.3154   -1.6092 C   0  0  0  0  0  0  0  0  0  0  0  0
   16.8793   71.9994   -3.0956 C   0  0  0  0  0  0  0  0  0  0  0  0
   16.8504   73.2711   -2.6924 C   0  0  0  0  0  0  0  0  0  0  0  0
   15.8772   73.6771   -1.6572 C   0  0  0  0  0  0  0  0  0  0  0  0
   14.4035   72.8936   -0.5068 H   0  0  0  0  0  0  0  0  0  0  0  0
   20.7649   71.0888   -3.0605 O   0  0  0  0  0  0  0  0  0  0  0  0
   20.6889   72.3823   -4.0273 P   0  0  2  0  0  0  0  0  0  0  0  0
   22.1655   72.4371   -4.6885 O   0  0  0  0  0  0  0  0  0  0  0  0
   20.2754   73.6472   -3.3323 O   0  0  0  0  0  0  0  0  0  0  0  0
   19.7182   71.9341   -5.2353 O   0  0  0  0  0  0  0  0  0  0  0  0
   19.9926   71.2944   -7.4991 O   0  0  0  0  0  0  0  0  0  0  0  0
   16.6962   73.7749   -7.7200 O   0  0  0  0  0  0  0  0  0  0  0  0
   18.9784   74.4908   -6.0426 O   0  0  0  0  0  0  0  0  0  0  0  0
   16.3664   70.8915   -7.8876 O   0  0  0  0  0  0  0  0  0  0  0  0
   17.5755   72.8270   -7.1149 C   0  0  2  0  0  0  0  0  0  0  0  0
   18.9744   73.4318   -6.9930 C   0  0  2  0  0  0  0  0  0  0  0  0
   17.6101   71.5805   -8.0021 C   0  0  1  0  0  0  0  0  0  0  0  0
   19.9923   72.3740   -6.5642 C   0  0  1  0  0  0  0  0  0  0  0  0
   18.7325   70.6332   -7.5884 C   0  0  1  0  0  0  0  0  0  0  0  0
   16.6583   74.5757   -7.1736 H   0  0  0  0  0  0  0  0  0  0  0  0
   18.3345   75.1655   -6.3083 H   0  0  0  0  0  0  0  0  0  0  0  0
   15.6436   71.4836   -8.1479 H   0  0  0  0  0  0  0  0  0  0  0  0
   18.2484   69.8777   -9.7555 O   0  0  0  0  0  0  0  0  0  0  0  0
   19.7114   68.6361   -8.5238 O   0  0  0  0  0  0  0  0  0  0  0  0
   18.9697   69.6000   -8.6413 C   0  0  0  0  0  0  0  0  0  0  0  0
  1  4  1  0
  1 24  1  0
  1  2  1  1
  1  3  2  0
 25 28  1  0
 25 24  1  0
 25 26  1  6
 25 27  2  0
  6 11  1  0
  6 12  1  0
 29 36  1  0
 29 37  1  0
  9  7  1  1
  7 13  1  0
 10  8  1  6
  8 14  1  0
  4  5  1  0
 36 28  1  1
 33 30  1  6
 30 38  1  0
 34 31  1  1
 31 39  1  0
 35 32  1  1
 32 40  1  0
 41 43  1  0
 15 19  2  0
 42 43  2  0
 16 22  2  0
 12 17  1  1
 17 19  1  0
 17 20  1  0
 18 19  1  0
 18 22  1  0
 18 23  1  0
  9 10  1  0
  9 11  1  0
 10 12  1  0
 11  5  1  6
 33 34  1  0
 33 35  1  0
 34 36  1  0
 35 37  1  0
 37 43  1  6
 20 21  2  0
 21 22  1  0
M  CHG  3   2  -1  26  -1  41  -1
M  END
>  <COMPND>  (139) 
    udp_gluA.pdb 

>  <AUTHOR>  (139) 
    GENERATED BY OPEN BABEL 3.1.1

>  <MASTER>  (139) 
        0    0    0    0    0    0    0    0   56    0   56    0

>  <minimizedAffinity>  (139) 
-7.09871

>  <CNNscore>  (139) 
0.3191006184

>  <CNNaffinity>  (139) 
4.0461478233

>  <CNN_VS>  (139) 
1.2911282778

>  <CNNaffinity_variance>  (139) 
0.4029032588

$$$$
140
     RDKit          3D

 43 45  0  0  0  0  0  0  0  0999 V2000
   17.6544   69.6197   -2.1966 P   0  0  2  0  0  0  0  0  0  0  0  0
   16.4740   68.5128   -2.2115 O   0  0  0  0  0  0  0  0  0  0  0  0
   18.9965   69.1090   -1.7608 O   0  0  0  0  0  0  0  0  0  0  0  0
   17.0420   70.8288   -1.3129 O   0  0  0  0  0  0  0  0  0  0  0  0
   17.5645   72.1319   -1.4959 C   0  0  0  0  0  0  0  0  0  0  0  0
   19.3841   71.9536    0.0644 O   0  0  0  0  0  0  0  0  0  0  0  0
   18.4435   74.5752    1.1754 O   0  0  0  0  0  0  0  0  0  0  0  0
   20.5619   75.3112   -0.3760 O   0  0  0  0  0  0  0  0  0  0  0  0
   18.4526   74.1180   -0.1772 C   0  0  1  0  0  0  0  0  0  0  0  0
   19.8633   74.1349   -0.7267 C   0  0  2  0  0  0  0  0  0  0  0  0
   18.1304   72.6300   -0.1722 C   0  0  1  0  0  0  0  0  0  0  0  0
   20.4622   72.8892   -0.0964 C   0  0  2  0  0  0  0  0  0  0  0  0
   18.6469   75.5238    1.1978 H   0  0  0  0  0  0  0  0  0  0  0  0
   20.1422   76.0756   -0.8021 H   0  0  0  0  0  0  0  0  0  0  0  0
   23.1240   72.4407    0.7344 O   0  0  0  0  0  0  0  0  0  0  0  0
   24.2754   70.5988   -3.3308 O   0  0  0  0  0  0  0  0  0  0  0  0
   21.4783   72.2940   -0.9175 N   0  0  0  0  0  0  0  0  0  0  0  0
   23.6952   71.5247   -1.2914 N   0  0  0  0  0  0  0  0  0  0  0  0
   22.7845   72.1134   -0.4043 C   0  0  0  0  0  0  0  0  0  0  0  0
   21.1768   71.8949   -2.2139 C   0  0  0  0  0  0  0  0  0  0  0  0
   22.0555   71.3350   -3.0477 C   0  0  0  0  0  0  0  0  0  0  0  0
   23.4425   71.1118   -2.5896 C   0  0  0  0  0  0  0  0  0  0  0  0
   24.6115   71.3906   -0.9573 H   0  0  0  0  0  0  0  0  0  0  0  0
   17.6152   70.2123   -3.7000 O   0  0  0  0  0  0  0  0  0  0  0  0
   18.3370   69.7120   -5.0573 P   0  0  2  0  0  0  0  0  0  0  0  0
   17.3485   68.5480   -5.5944 O   0  0  0  0  0  0  0  0  0  0  0  0
   19.7619   69.2767   -4.8725 O   0  0  0  0  0  0  0  0  0  0  0  0
   18.1380   70.9278   -6.0987 O   0  0  0  0  0  0  0  0  0  0  0  0
   16.3501   72.4509   -5.7948 O   0  0  0  0  0  0  0  0  0  0  0  0
   17.3986   73.1594   -9.7275 O   0  0  0  0  0  0  0  0  0  0  0  0
   17.2774   70.4289   -8.6961 O   0  0  0  0  0  0  0  0  0  0  0  0
   18.1642   75.0443   -7.6510 O   0  0  0  0  0  0  0  0  0  0  0  0
   17.6225   72.8070   -8.3624 C   0  0  2  0  0  0  0  0  0  0  0  0
   16.7892   71.5750   -8.0086 C   0  0  2  0  0  0  0  0  0  0  0  0
   17.2093   73.9967   -7.4930 C   0  0  1  0  0  0  0  0  0  0  0  0
   16.8234   71.3051   -6.5037 C   0  0  1  0  0  0  0  0  0  0  0  0
   17.1459   73.6129   -6.0174 C   0  0  1  0  0  0  0  0  0  0  0  0
   17.6542   72.4183  -10.2991 H   0  0  0  0  0  0  0  0  0  0  0  0
   17.2588   70.5933   -9.6517 H   0  0  0  0  0  0  0  0  0  0  0  0
   18.2144   75.2978   -8.5859 H   0  0  0  0  0  0  0  0  0  0  0  0
   17.0965   75.8446   -5.2972 O   0  0  0  0  0  0  0  0  0  0  0  0
   15.4002   74.4892   -4.6011 O   0  0  0  0  0  0  0  0  0  0  0  0
   16.4355   74.6626   -5.2264 C   0  0  0  0  0  0  0  0  0  0  0  0
  1  4  1  0
  1 24  1  0
  1  2  1  6
  1  3  2  0
 25 28  1  0
 25 24  1  0
 25 26  1  6
 25 27  2  0
  6 11  1  0
  6 12  1  0
 29 36  1  0
 29 37  1  0
  9  7  1  1
  7 13  1  0
 10  8  1  1
  8 14  1  0
  4  5  1  0
 36 28  1  1
 33 30  1  6
 30 38  1  0
 34 31  1  6
 31 39  1  0
 35 32  1  1
 32 40  1  0
 41 43  1  0
 15 19  2  0
 42 43  2  0
 16 22  2  0
 12 17  1  6
 17 19  1  0
 17 20  1  0
 18 19  1  0
 18 22  1  0
 18 23  1  0
  9 10  1  0
  9 11  1  0
 10 12  1  0
 11  5  1  6
 33 34  1  0
 33 35  1  0
 34 36  1  0
 35 37  1  0
 37 43  1  1
 20 21  2  0
 21 22  1  0
M  CHG  3   2  -1  26  -1  41  -1
M  END
>  <COMPND>  (140) 
    udp_gluA.pdb 

>  <AUTHOR>  (140) 
    GENERATED BY OPEN BABEL 3.1.1

>  <MASTER>  (140) 
        0    0    0    0    0    0    0    0   56    0   56    0

>  <minimizedAffinity>  (140) 
-7.52368

>  <CNNscore>  (140) 
0.3152993619

>  <CNNaffinity>  (140) 
3.8072261810

>  <CNN_VS>  (140) 
1.2004159689

>  <CNNaffinity_variance>  (140) 
0.4479594231

$$$$
141
     RDKit          3D

 43 45  0  0  0  0  0  0  0  0999 V2000
   20.4925   70.5376   -1.5927 P   0  0  2  0  0  0  0  0  0  0  0  0
   20.1903   69.2838   -0.6151 O   0  0  0  0  0  0  0  0  0  0  0  0
   19.6169   71.7366   -1.3745 O   0  0  0  0  0  0  0  0  0  0  0  0
   20.4451   69.8937   -3.0763 O   0  0  0  0  0  0  0  0  0  0  0  0
   19.5585   68.8166   -3.3179 C   0  0  0  0  0  0  0  0  0  0  0  0
   17.8347   70.2604   -4.1673 O   0  0  0  0  0  0  0  0  0  0  0  0
   15.9141   68.5935   -2.5786 O   0  0  0  0  0  0  0  0  0  0  0  0
   15.5932   67.6249   -5.1075 O   0  0  0  0  0  0  0  0  0  0  0  0
   17.0921   68.1938   -3.2794 C   0  0  1  0  0  0  0  0  0  0  0  0
   16.8403   68.1968   -4.7723 C   0  0  2  0  0  0  0  0  0  0  0  0
   18.1267   69.3007   -3.1286 C   0  0  1  0  0  0  0  0  0  0  0  0
   16.9115   69.6782   -5.1012 C   0  0  2  0  0  0  0  0  0  0  0  0
   15.2384   67.9018   -2.6607 H   0  0  0  0  0  0  0  0  0  0  0  0
   15.5983   66.6816   -4.8792 H   0  0  0  0  0  0  0  0  0  0  0  0
   15.5674   71.2814   -6.9985 O   0  0  0  0  0  0  0  0  0  0  0  0
   18.8081   70.5407  -10.1911 O   0  0  0  0  0  0  0  0  0  0  0  0
   17.3817   69.9213   -6.4357 N   0  0  0  0  0  0  0  0  0  0  0  0
   17.1822   70.9101   -8.5871 N   0  0  0  0  0  0  0  0  0  0  0  0
   16.6308   70.7420   -7.3101 C   0  0  0  0  0  0  0  0  0  0  0  0
   18.5740   69.3515   -6.8655 C   0  0  0  0  0  0  0  0  0  0  0  0
   19.0869   69.5210   -8.0857 C   0  0  0  0  0  0  0  0  0  0  0  0
   18.3640   70.3637   -9.0607 C   0  0  0  0  0  0  0  0  0  0  0  0
   16.6763   71.4758   -9.2143 H   0  0  0  0  0  0  0  0  0  0  0  0
   22.0700   70.8050   -1.3629 O   0  0  0  0  0  0  0  0  0  0  0  0
   23.1298   71.6911   -2.2028 P   0  0  2  0  0  0  0  0  0  0  0  0
   24.3217   70.6420   -2.5175 O   0  0  0  0  0  0  0  0  0  0  0  0
   23.5761   72.9428   -1.5043 O   0  0  0  0  0  0  0  0  0  0  0  0
   22.4175   71.9379   -3.6290 O   0  0  0  0  0  0  0  0  0  0  0  0
   23.0334   74.0604   -4.4804 O   0  0  0  0  0  0  0  0  0  0  0  0
   20.3620   72.7483   -7.3457 O   0  0  0  0  0  0  0  0  0  0  0  0
   19.8087   72.3380   -4.5067 O   0  0  0  0  0  0  0  0  0  0  0  0
   23.2181   72.7078   -7.8860 O   0  0  0  0  0  0  0  0  0  0  0  0
   21.3696   72.6118   -6.3436 C   0  0  2  0  0  0  0  0  0  0  0  0
   20.8494   73.1638   -5.0162 C   0  0  2  0  0  0  0  0  0  0  0  0
   22.6007   73.3975   -6.8009 C   0  0  1  0  0  0  0  0  0  0  0  0
   21.9717   73.2465   -3.9806 C   0  0  1  0  0  0  0  0  0  0  0  0
   23.6187   73.5436   -5.6735 C   0  0  1  0  0  0  0  0  0  0  0  0
   19.5697   72.2571   -7.0768 H   0  0  0  0  0  0  0  0  0  0  0  0
   19.0933   72.2808   -5.1588 H   0  0  0  0  0  0  0  0  0  0  0  0
   22.5806   72.6080   -8.6103 H   0  0  0  0  0  0  0  0  0  0  0  0
   25.3612   74.1917   -7.1035 O   0  0  0  0  0  0  0  0  0  0  0  0
   24.8221   75.6179   -5.4081 O   0  0  0  0  0  0  0  0  0  0  0  0
   24.6459   74.5730   -6.0164 C   0  0  0  0  0  0  0  0  0  0  0  0
  1  4  1  0
  1 24  1  0
  1  2  1  1
  1  3  2  0
 25 28  1  0
 25 24  1  0
 25 26  1  6
 25 27  2  0
  6 11  1  0
  6 12  1  0
 29 36  1  0
 29 37  1  0
  9  7  1  1
  7 13  1  0
 10  8  1  1
  8 14  1  0
  4  5  1  0
 36 28  1  6
 33 30  1  6
 30 38  1  0
 34 31  1  1
 31 39  1  0
 35 32  1  6
 32 40  1  0
 41 43  1  0
 15 19  2  0
 42 43  2  0
 16 22  2  0
 12 17  1  6
 17 19  1  0
 17 20  1  0
 18 19  1  0
 18 22  1  0
 18 23  1  0
  9 10  1  0
  9 11  1  0
 10 12  1  0
 11  5  1  6
 33 34  1  0
 33 35  1  0
 34 36  1  0
 35 37  1  0
 37 43  1  6
 20 21  2  0
 21 22  1  0
M  CHG  3   2  -1  26  -1  41  -1
M  END
>  <COMPND>  (141) 
    udp_gluA.pdb 

>  <AUTHOR>  (141) 
    GENERATED BY OPEN BABEL 3.1.1

>  <MASTER>  (141) 
        0    0    0    0    0    0    0    0   56    0   56    0

>  <minimizedAffinity>  (141) 
-8.81088

>  <CNNscore>  (141) 
0.6527371407

>  <CNNaffinity>  (141) 
4.5230169296

>  <CNN_VS>  (141) 
2.9523410797

>  <CNNaffinity_variance>  (141) 
0.5169428587

$$$$
142
     RDKit          3D

 43 45  0  0  0  0  0  0  0  0999 V2000
   20.8715   70.7587   -1.4058 P   0  0  2  0  0  0  0  0  0  0  0  0
   22.4471   70.7345   -1.0374 O   0  0  0  0  0  0  0  0  0  0  0  0
   20.0172   69.8280   -0.5961 O   0  0  0  0  0  0  0  0  0  0  0  0
   20.8432   70.5249   -3.0066 O   0  0  0  0  0  0  0  0  0  0  0  0
   20.0805   69.4478   -3.5191 C   0  0  0  0  0  0  0  0  0  0  0  0
   18.1246   70.5597   -4.3649 O   0  0  0  0  0  0  0  0  0  0  0  0
   16.5467   68.7495   -2.5692 O   0  0  0  0  0  0  0  0  0  0  0  0
   16.2620   67.5646   -5.0087 O   0  0  0  0  0  0  0  0  0  0  0  0
   17.7389   68.4764   -3.3058 C   0  0  1  0  0  0  0  0  0  0  0  0
   17.4234   68.3349   -4.7798 C   0  0  2  0  0  0  0  0  0  0  0  0
   18.6023   69.7303   -3.2837 C   0  0  1  0  0  0  0  0  0  0  0  0
   17.2581   69.7833   -5.2074 C   0  0  2  0  0  0  0  0  0  0  0  0
   15.9788   67.9626   -2.5693 H   0  0  0  0  0  0  0  0  0  0  0  0
   16.4180   66.6511   -4.7204 H   0  0  0  0  0  0  0  0  0  0  0  0
   15.7421   71.2922   -7.0517 O   0  0  0  0  0  0  0  0  0  0  0  0
   18.7700   70.5304  -10.4422 O   0  0  0  0  0  0  0  0  0  0  0  0
   17.6271   69.9955   -6.5784 N   0  0  0  0  0  0  0  0  0  0  0  0
   17.2511   70.9105   -8.7389 N   0  0  0  0  0  0  0  0  0  0  0  0
   16.7951   70.7694   -7.4216 C   0  0  0  0  0  0  0  0  0  0  0  0
   18.8011   69.4418   -7.0744 C   0  0  0  0  0  0  0  0  0  0  0  0
   19.2227   69.5851   -8.3324 C   0  0  0  0  0  0  0  0  0  0  0  0
   18.4110   70.3785   -9.2785 C   0  0  0  0  0  0  0  0  0  0  0  0
   16.6876   71.4435   -9.3453 H   0  0  0  0  0  0  0  0  0  0  0  0
   20.4888   72.3224   -1.2601 O   0  0  0  0  0  0  0  0  0  0  0  0
   19.2649   73.1778   -1.8798 P   0  0  2  0  0  0  0  0  0  0  0  0
   19.6177   74.6966   -1.4449 O   0  0  0  0  0  0  0  0  0  0  0  0
   17.9055   72.7104   -1.4468 O   0  0  0  0  0  0  0  0  0  0  0  0
   19.5080   73.1441   -3.4743 O   0  0  0  0  0  0  0  0  0  0  0  0
   21.2181   74.4220   -4.4998 O   0  0  0  0  0  0  0  0  0  0  0  0
   18.7090   73.6596   -7.6922 O   0  0  0  0  0  0  0  0  0  0  0  0
   17.6093   74.3842   -5.0845 O   0  0  0  0  0  0  0  0  0  0  0  0
   21.2092   72.2014   -7.4206 O   0  0  0  0  0  0  0  0  0  0  0  0
   19.3527   73.3890   -6.4470 C   0  0  2  0  0  0  0  0  0  0  0  0
   18.9855   74.4743   -5.4347 C   0  0  2  0  0  0  0  0  0  0  0  0
   20.8637   73.3759   -6.6888 C   0  0  1  0  0  0  0  0  0  0  0  0
   19.8313   74.3485   -4.1668 C   0  0  1  0  0  0  0  0  0  0  0  0
   21.6383   73.3768   -5.3740 C   0  0  1  0  0  0  0  0  0  0  0  0
   17.7475   73.6729   -7.5632 H   0  0  0  0  0  0  0  0  0  0  0  0
   17.0667   74.4630   -5.8844 H   0  0  0  0  0  0  0  0  0  0  0  0
   20.7228   72.1885   -8.2597 H   0  0  0  0  0  0  0  0  0  0  0  0
   23.8715   72.7033   -5.1278 O   0  0  0  0  0  0  0  0  0  0  0  0
   23.4956   74.7031   -6.1566 O   0  0  0  0  0  0  0  0  0  0  0  0
   23.0795   73.6940   -5.6076 C   0  0  0  0  0  0  0  0  0  0  0  0
  1  4  1  0
  1 24  1  0
  1  2  1  1
  1  3  2  0
 25 28  1  0
 25 24  1  0
 25 26  1  1
 25 27  2  0
  6 11  1  0
  6 12  1  0
 29 36  1  0
 29 37  1  0
  9  7  1  1
  7 13  1  0
 10  8  1  1
  8 14  1  0
  4  5  1  0
 36 28  1  6
 33 30  1  6
 30 38  1  0
 34 31  1  1
 31 39  1  0
 35 32  1  1
 32 40  1  0
 41 43  1  0
 15 19  2  0
 42 43  2  0
 16 22  2  0
 12 17  1  6
 17 19  1  0
 17 20  1  0
 18 19  1  0
 18 22  1  0
 18 23  1  0
  9 10  1  0
  9 11  1  0
 10 12  1  0
 11  5  1  6
 33 34  1  0
 33 35  1  0
 34 36  1  0
 35 37  1  0
 37 43  1  6
 20 21  2  0
 21 22  1  0
M  CHG  3   2  -1  26  -1  41  -1
M  END
>  <COMPND>  (142) 
    udp_gluA.pdb 

>  <AUTHOR>  (142) 
    GENERATED BY OPEN BABEL 3.1.1

>  <MASTER>  (142) 
        0    0    0    0    0    0    0    0   56    0   56    0

>  <minimizedAffinity>  (142) 
-7.89142

>  <CNNscore>  (142) 
0.6229618192

>  <CNNaffinity>  (142) 
4.4380488396

>  <CNN_VS>  (142) 
2.7647349834

>  <CNNaffinity_variance>  (142) 
0.5983785987

$$$$
143
     RDKit          3D

 43 45  0  0  0  0  0  0  0  0999 V2000
   22.6070   73.3797   -6.5995 P   0  0  2  0  0  0  0  0  0  0  0  0
   22.9614   74.4104   -7.7958 O   0  0  0  0  0  0  0  0  0  0  0  0
   23.7880   72.8924   -5.8124 O   0  0  0  0  0  0  0  0  0  0  0  0
   21.7237   72.2334   -7.3233 O   0  0  0  0  0  0  0  0  0  0  0  0
   20.3124   72.3372   -7.2768 C   0  0  0  0  0  0  0  0  0  0  0  0
   19.7141   70.0195   -7.0585 O   0  0  0  0  0  0  0  0  0  0  0  0
   17.9483   70.4428   -9.4448 O   0  0  0  0  0  0  0  0  0  0  0  0
   16.1795   70.5327   -7.3713 O   0  0  0  0  0  0  0  0  0  0  0  0
   18.2456   71.3355   -8.3709 C   0  0  1  0  0  0  0  0  0  0  0  0
   17.5174   70.9055   -7.1150 C   0  0  2  0  0  0  0  0  0  0  0  0
   19.7029   71.1313   -7.9799 C   0  0  1  0  0  0  0  0  0  0  0  0
   18.3685   69.7401   -6.6403 C   0  0  2  0  0  0  0  0  0  0  0  0
   17.0222   70.5549   -9.7120 H   0  0  0  0  0  0  0  0  0  0  0  0
   15.6793   71.3088   -7.6703 H   0  0  0  0  0  0  0  0  0  0  0  0
   16.2295   68.5982   -5.1922 O   0  0  0  0  0  0  0  0  0  0  0  0
   18.3862   69.2150   -1.1657 O   0  0  0  0  0  0  0  0  0  0  0  0
   18.3449   69.5899   -5.2129 N   0  0  0  0  0  0  0  0  0  0  0  0
   17.3053   68.9074   -3.1881 N   0  0  0  0  0  0  0  0  0  0  0  0
   17.2216   69.0032   -4.5834 C   0  0  0  0  0  0  0  0  0  0  0  0
   19.4256   70.0193   -4.4522 C   0  0  0  0  0  0  0  0  0  0  0  0
   19.4909   69.9212   -3.1230 C   0  0  0  0  0  0  0  0  0  0  0  0
   18.3583   69.3208   -2.3881 C   0  0  0  0  0  0  0  0  0  0  0  0
   16.5343   68.5042   -2.7273 H   0  0  0  0  0  0  0  0  0  0  0  0
   21.5096   74.1918   -5.7340 O   0  0  0  0  0  0  0  0  0  0  0  0
   21.6844   75.2973   -4.5675 P   0  0  2  0  0  0  0  0  0  0  0  0
   20.1869   75.8848   -4.3873 O   0  0  0  0  0  0  0  0  0  0  0  0
   22.7265   76.3386   -4.8570 O   0  0  0  0  0  0  0  0  0  0  0  0
   21.9493   74.4396   -3.2271 O   0  0  0  0  0  0  0  0  0  0  0  0
   22.2241   72.1063   -2.9282 O   0  0  0  0  0  0  0  0  0  0  0  0
   20.3639   73.1921    0.5972 O   0  0  0  0  0  0  0  0  0  0  0  0
   19.4814   74.3171   -1.9503 O   0  0  0  0  0  0  0  0  0  0  0  0
   23.2119   72.6096    0.5694 O   0  0  0  0  0  0  0  0  0  0  0  0
   21.2116   73.3703   -0.5375 C   0  0  2  0  0  0  0  0  0  0  0  0
   20.3887   73.2290   -1.8183 C   0  0  2  0  0  0  0  0  0  0  0  0
   22.3032   72.2990   -0.4853 C   0  0  1  0  0  0  0  0  0  0  0  0
   21.2954   73.1844   -3.0490 C   0  0  1  0  0  0  0  0  0  0  0  0
   23.0816   72.2325   -1.7961 C   0  0  1  0  0  0  0  0  0  0  0  0
   19.6623   73.8620    0.5853 H   0  0  0  0  0  0  0  0  0  0  0  0
   18.9031   74.3515   -1.1726 H   0  0  0  0  0  0  0  0  0  0  0  0
   22.7290   72.6550    1.4094 H   0  0  0  0  0  0  0  0  0  0  0  0
   24.2296   70.6941   -3.1440 O   0  0  0  0  0  0  0  0  0  0  0  0
   24.2510   70.3245   -0.8941 O   0  0  0  0  0  0  0  0  0  0  0  0
   23.9072   70.9889   -1.8602 C   0  0  0  0  0  0  0  0  0  0  0  0
  1  4  1  0
  1 24  1  0
  1  2  1  6
  1  3  2  0
 25 28  1  0
 25 24  1  0
 25 26  1  1
 25 27  2  0
  6 11  1  0
  6 12  1  0
 29 36  1  0
 29 37  1  0
  9  7  1  6
  7 13  1  0
 10  8  1  6
  8 14  1  0
  4  5  1  0
 36 28  1  1
 33 30  1  1
 30 38  1  0
 34 31  1  6
 31 39  1  0
 35 32  1  1
 32 40  1  0
 41 43  1  0
 15 19  2  0
 42 43  2  0
 16 22  2  0
 12 17  1  1
 17 19  1  0
 17 20  1  0
 18 19  1  0
 18 22  1  0
 18 23  1  0
  9 10  1  0
  9 11  1  0
 10 12  1  0
 11  5  1  1
 33 34  1  0
 33 35  1  0
 34 36  1  0
 35 37  1  0
 37 43  1  1
 20 21  2  0
 21 22  1  0
M  CHG  3   2  -1  26  -1  41  -1
M  END
>  <COMPND>  (143) 
    udp_gluA.pdb 

>  <AUTHOR>  (143) 
    GENERATED BY OPEN BABEL 3.1.1

>  <MASTER>  (143) 
        0    0    0    0    0    0    0    0   56    0   56    0

>  <minimizedAffinity>  (143) 
-7.77126

>  <CNNscore>  (143) 
0.5992863774

>  <CNNaffinity>  (143) 
4.3877539635

>  <CNN_VS>  (143) 
2.6295211315

>  <CNNaffinity_variance>  (143) 
0.7517017126

$$$$
144
     RDKit          3D

 43 45  0  0  0  0  0  0  0  0999 V2000
   20.6125   70.6615   -1.5677 P   0  0  2  0  0  0  0  0  0  0  0  0
   21.3905   70.3567   -2.9536 O   0  0  0  0  0  0  0  0  0  0  0  0
   20.1469   69.4454   -0.8219 O   0  0  0  0  0  0  0  0  0  0  0  0
   19.4562   71.7100   -1.9937 O   0  0  0  0  0  0  0  0  0  0  0  0
   18.9846   71.6909   -3.3285 C   0  0  0  0  0  0  0  0  0  0  0  0
   16.9840   71.5185   -4.6497 O   0  0  0  0  0  0  0  0  0  0  0  0
   15.9932   69.6068   -2.5627 O   0  0  0  0  0  0  0  0  0  0  0  0
   16.8056   67.9388   -4.5611 O   0  0  0  0  0  0  0  0  0  0  0  0
   17.3167   69.7878   -3.0671 C   0  0  1  0  0  0  0  0  0  0  0  0
   17.4326   69.2000   -4.4575 C   0  0  2  0  0  0  0  0  0  0  0  0
   17.5197   71.2734   -3.3312 C   0  0  1  0  0  0  0  0  0  0  0  0
   16.7542   70.2617   -5.3063 C   0  0  2  0  0  0  0  0  0  0  0  0
   15.8400   68.6650   -2.3863 H   0  0  0  0  0  0  0  0  0  0  0  0
   17.2744   67.2979   -4.0031 H   0  0  0  0  0  0  0  0  0  0  0  0
   15.4236   71.4267   -7.5083 O   0  0  0  0  0  0  0  0  0  0  0  0
   18.9064   70.4478  -10.3640 O   0  0  0  0  0  0  0  0  0  0  0  0
   17.2903   70.3250   -6.6365 N   0  0  0  0  0  0  0  0  0  0  0  0
   17.1591   70.9371   -8.9287 N   0  0  0  0  0  0  0  0  0  0  0  0
   16.5404   70.9319   -7.6716 C   0  0  0  0  0  0  0  0  0  0  0  0
   18.5451   69.7917   -6.9046 C   0  0  0  0  0  0  0  0  0  0  0  0
   19.1217   69.8043   -8.1080 C   0  0  0  0  0  0  0  0  0  0  0  0
   18.4046   70.4189   -9.2444 C   0  0  0  0  0  0  0  0  0  0  0  0
   16.6554   71.3524   -9.6657 H   0  0  0  0  0  0  0  0  0  0  0  0
   21.6619   71.5869   -0.7583 O   0  0  0  0  0  0  0  0  0  0  0  0
   21.5251   73.0905   -0.1803 P   0  0  2  0  0  0  0  0  0  0  0  0
   22.9136   73.3056    0.6234 O   0  0  0  0  0  0  0  0  0  0  0  0
   20.2915   73.3239    0.6429 O   0  0  0  0  0  0  0  0  0  0  0  0
   21.6540   74.0409   -1.4775 O   0  0  0  0  0  0  0  0  0  0  0  0
   23.1156   73.5287   -3.2692 O   0  0  0  0  0  0  0  0  0  0  0  0
   22.5220   77.5824   -3.8012 O   0  0  0  0  0  0  0  0  0  0  0  0
   22.9346   76.4847   -1.1255 O   0  0  0  0  0  0  0  0  0  0  0  0
   21.1846   75.6717   -5.5366 O   0  0  0  0  0  0  0  0  0  0  0  0
   22.1706   76.2533   -3.4165 C   0  0  2  0  0  0  0  0  0  0  0  0
   23.1332   75.7621   -2.3351 C   0  0  2  0  0  0  0  0  0  0  0  0
   22.2637   75.3618   -4.6568 C   0  0  1  0  0  0  0  0  0  0  0  0
   22.9346   74.2704   -2.0624 C   0  0  1  0  0  0  0  0  0  0  0  0
   22.1828   73.8834   -4.2876 C   0  0  1  0  0  0  0  0  0  0  0  0
   22.4700   78.1672   -3.0288 H   0  0  0  0  0  0  0  0  0  0  0  0
   23.0588   77.4321   -1.2913 H   0  0  0  0  0  0  0  0  0  0  0  0
   21.2244   76.6100   -5.7791 H   0  0  0  0  0  0  0  0  0  0  0  0
   21.5149   72.5608   -6.1059 O   0  0  0  0  0  0  0  0  0  0  0  0
   23.7558   72.7748   -5.7429 O   0  0  0  0  0  0  0  0  0  0  0  0
   22.5995   73.0257   -5.4378 C   0  0  0  0  0  0  0  0  0  0  0  0
  1  4  1  0
  1 24  1  0
  1  2  1  6
  1  3  2  0
 25 28  1  0
 25 24  1  0
 25 26  1  1
 25 27  2  0
  6 11  1  0
  6 12  1  0
 29 36  1  0
 29 37  1  0
  9  7  1  6
  7 13  1  0
 10  8  1  1
  8 14  1  0
  4  5  1  0
 36 28  1  6
 33 30  1  6
 30 38  1  0
 34 31  1  1
 31 39  1  0
 35 32  1  6
 32 40  1  0
 41 43  1  0
 15 19  2  0
 42 43  2  0
 16 22  2  0
 12 17  1  6
 17 19  1  0
 17 20  1  0
 18 19  1  0
 18 22  1  0
 18 23  1  0
  9 10  1  0
  9 11  1  0
 10 12  1  0
 11  5  1  6
 33 34  1  0
 33 35  1  0
 34 36  1  0
 35 37  1  0
 37 43  1  6
 20 21  2  0
 21 22  1  0
M  CHG  3   2  -1  26  -1  41  -1
M  END
>  <COMPND>  (144) 
    udp_gluA.pdb 

>  <AUTHOR>  (144) 
    GENERATED BY OPEN BABEL 3.1.1

>  <MASTER>  (144) 
        0    0    0    0    0    0    0    0   56    0   56    0

>  <minimizedAffinity>  (144) 
-7.66573

>  <CNNscore>  (144) 
0.5611882806

>  <CNNaffinity>  (144) 
4.5298233032

>  <CNN_VS>  (144) 
2.5420837402

>  <CNNaffinity_variance>  (144) 
0.0911759883

$$$$
145
     RDKit          3D

 43 45  0  0  0  0  0  0  0  0999 V2000
   19.0703   69.9606   -4.0262 P   0  0  2  0  0  0  0  0  0  0  0  0
   19.7900   68.6033   -3.5176 O   0  0  0  0  0  0  0  0  0  0  0  0
   18.0395   70.5202   -3.0902 O   0  0  0  0  0  0  0  0  0  0  0  0
   18.5436   69.5885   -5.5102 O   0  0  0  0  0  0  0  0  0  0  0  0
   19.1737   70.1956   -6.6232 C   0  0  0  0  0  0  0  0  0  0  0  0
   16.9325   70.1723   -7.4916 O   0  0  0  0  0  0  0  0  0  0  0  0
   18.1820   70.3848  -10.2092 O   0  0  0  0  0  0  0  0  0  0  0  0
   17.3840   72.9457   -9.7184 O   0  0  0  0  0  0  0  0  0  0  0  0
   18.5960   70.9729   -8.9758 C   0  0  1  0  0  0  0  0  0  0  0  0
   17.6809   72.1223   -8.6100 C   0  0  2  0  0  0  0  0  0  0  0  0
   18.3143   69.9744   -7.8613 C   0  0  1  0  0  0  0  0  0  0  0  0
   16.4580   71.3949   -8.0778 C   0  0  2  0  0  0  0  0  0  0  0  0
   18.3521   71.0044  -10.9364 H   0  0  0  0  0  0  0  0  0  0  0  0
   18.1944   73.3867  -10.0198 H   0  0  0  0  0  0  0  0  0  0  0  0
   14.3985   73.2478   -8.6269 O   0  0  0  0  0  0  0  0  0  0  0  0
   13.8572   74.2469   -4.1600 O   0  0  0  0  0  0  0  0  0  0  0  0
   15.7617   72.1530   -7.0772 N   0  0  0  0  0  0  0  0  0  0  0  0
   14.1315   73.7444   -6.4017 N   0  0  0  0  0  0  0  0  0  0  0  0
   14.7429   73.0577   -7.4589 C   0  0  0  0  0  0  0  0  0  0  0  0
   16.0884   71.9958   -5.7357 C   0  0  0  0  0  0  0  0  0  0  0  0
   15.4967   72.6573   -4.7392 C   0  0  0  0  0  0  0  0  0  0  0  0
   14.4224   73.6223   -5.0526 C   0  0  0  0  0  0  0  0  0  0  0  0
   13.4206   74.3813   -6.6429 H   0  0  0  0  0  0  0  0  0  0  0  0
   20.3183   70.9450   -4.3198 O   0  0  0  0  0  0  0  0  0  0  0  0
   21.4941   71.4862   -3.3511 P   0  0  2  0  0  0  0  0  0  0  0  0
   22.2534   72.5829   -4.2682 O   0  0  0  0  0  0  0  0  0  0  0  0
   22.3879   70.4097   -2.8068 O   0  0  0  0  0  0  0  0  0  0  0  0
   20.7304   72.3546   -2.2263 O   0  0  0  0  0  0  0  0  0  0  0  0
   18.7348   73.6289   -2.1729 O   0  0  0  0  0  0  0  0  0  0  0  0
   21.2975   75.9865    0.0503 O   0  0  0  0  0  0  0  0  0  0  0  0
   22.2249   74.6939   -2.3999 O   0  0  0  0  0  0  0  0  0  0  0  0
   19.2523   74.4022    1.3763 O   0  0  0  0  0  0  0  0  0  0  0  0
   20.7655   74.7652   -0.4631 C   0  0  2  0  0  0  0  0  0  0  0  0
   20.8646   74.7653   -1.9888 C   0  0  2  0  0  0  0  0  0  0  0  0
   19.3028   74.6653   -0.0247 C   0  0  1  0  0  0  0  0  0  0  0  0
   20.1009   73.5828   -2.5866 C   0  0  1  0  0  0  0  0  0  0  0  0
   18.5768   73.5414   -0.7585 C   0  0  1  0  0  0  0  0  0  0  0  0
   22.2266   76.0718   -0.2158 H   0  0  0  0  0  0  0  0  0  0  0  0
   22.7155   75.4411   -2.0239 H   0  0  0  0  0  0  0  0  0  0  0  0
   19.7111   75.1102    1.8550 H   0  0  0  0  0  0  0  0  0  0  0  0
   16.4437   72.8734   -1.4693 O   0  0  0  0  0  0  0  0  0  0  0  0
   16.5467   74.3605    0.2561 O   0  0  0  0  0  0  0  0  0  0  0  0
   17.0983   73.6585   -0.5782 C   0  0  0  0  0  0  0  0  0  0  0  0
  1  4  1  0
  1 24  1  0
  1  2  1  1
  1  3  2  0
 25 28  1  0
 25 24  1  0
 25 26  1  6
 25 27  2  0
  6 11  1  0
  6 12  1  0
 29 36  1  0
 29 37  1  0
  9  7  1  6
  7 13  1  0
 10  8  1  6
  8 14  1  0
  4  5  1  0
 36 28  1  1
 33 30  1  6
 30 38  1  0
 34 31  1  1
 31 39  1  0
 35 32  1  1
 32 40  1  0
 41 43  1  0
 15 19  2  0
 42 43  2  0
 16 22  2  0
 12 17  1  1
 17 19  1  0
 17 20  1  0
 18 19  1  0
 18 22  1  0
 18 23  1  0
  9 10  1  0
  9 11  1  0
 10 12  1  0
 11  5  1  1
 33 34  1  0
 33 35  1  0
 34 36  1  0
 35 37  1  0
 37 43  1  6
 20 21  2  0
 21 22  1  0
M  CHG  3   2  -1  26  -1  41  -1
M  END
>  <COMPND>  (145) 
    udp_gluA.pdb 

>  <AUTHOR>  (145) 
    GENERATED BY OPEN BABEL 3.1.1

>  <MASTER>  (145) 
        0    0    0    0    0    0    0    0   56    0   56    0

>  <minimizedAffinity>  (145) 
-6.47486

>  <CNNscore>  (145) 
0.5258458853

>  <CNNaffinity>  (145) 
4.2565612793

>  <CNN_VS>  (145) 
2.2382953167

>  <CNNaffinity_variance>  (145) 
0.0566241965

$$$$
146
     RDKit          3D

 43 45  0  0  0  0  0  0  0  0999 V2000
   22.7605   71.5540   -3.0714 P   0  0  2  0  0  0  0  0  0  0  0  0
   22.4603   72.0544   -4.5808 O   0  0  0  0  0  0  0  0  0  0  0  0
   24.0366   70.7829   -2.9015 O   0  0  0  0  0  0  0  0  0  0  0  0
   21.4075   70.7765   -2.6435 O   0  0  0  0  0  0  0  0  0  0  0  0
   20.6341   70.1584   -3.6555 C   0  0  0  0  0  0  0  0  0  0  0  0
   18.5080   70.9696   -4.4296 O   0  0  0  0  0  0  0  0  0  0  0  0
   17.2836   69.2202   -2.3243 O   0  0  0  0  0  0  0  0  0  0  0  0
   16.9371   67.7511   -4.5954 O   0  0  0  0  0  0  0  0  0  0  0  0
   18.4363   68.9878   -3.1342 C   0  0  1  0  0  0  0  0  0  0  0  0
   18.0223   68.6539   -4.5517 C   0  0  2  0  0  0  0  0  0  0  0  0
   19.1573   70.3163   -3.3174 C   0  0  1  0  0  0  0  0  0  0  0  0
   17.6671   70.0225   -5.1072 C   0  0  2  0  0  0  0  0  0  0  0  0
   16.8064   68.3855   -2.1933 H   0  0  0  0  0  0  0  0  0  0  0  0
   17.2138   66.8951   -4.2312 H   0  0  0  0  0  0  0  0  0  0  0  0
   15.9350   71.3130   -6.9269 O   0  0  0  0  0  0  0  0  0  0  0  0
   18.6651   70.3268  -10.5071 O   0  0  0  0  0  0  0  0  0  0  0  0
   17.9010   70.1178   -6.5204 N   0  0  0  0  0  0  0  0  0  0  0  0
   17.2959   70.8197   -8.7084 N   0  0  0  0  0  0  0  0  0  0  0  0
   16.9679   70.7878   -7.3466 C   0  0  0  0  0  0  0  0  0  0  0  0
   19.0439   69.5536   -7.0739 C   0  0  0  0  0  0  0  0  0  0  0  0
   19.3429   69.5922   -8.3738 C   0  0  0  0  0  0  0  0  0  0  0  0
   18.4199   70.2726   -9.3058 C   0  0  0  0  0  0  0  0  0  0  0  0
   16.6603   71.2789   -9.3038 H   0  0  0  0  0  0  0  0  0  0  0  0
   22.6807   72.9214   -2.2131 O   0  0  0  0  0  0  0  0  0  0  0  0
   22.9511   73.2077   -0.6451 P   0  0  2  0  0  0  0  0  0  0  0  0
   24.2250   74.2063   -0.6658 O   0  0  0  0  0  0  0  0  0  0  0  0
   23.1486   71.9703    0.1817 O   0  0  0  0  0  0  0  0  0  0  0  0
   21.7152   74.1340   -0.1792 O   0  0  0  0  0  0  0  0  0  0  0  0
   19.6687   73.6751   -1.2793 O   0  0  0  0  0  0  0  0  0  0  0  0
   18.7780   77.1748    0.7274 O   0  0  0  0  0  0  0  0  0  0  0  0
   21.3488   76.8552   -0.6230 O   0  0  0  0  0  0  0  0  0  0  0  0
   17.7753   74.6310    1.7147 O   0  0  0  0  0  0  0  0  0  0  0  0
   19.4253   75.9192    0.5216 C   0  0  2  0  0  0  0  0  0  0  0  0
   20.2438   75.9707   -0.7687 C   0  0  2  0  0  0  0  0  0  0  0  0
   18.3444   74.8403    0.4236 C   0  0  1  0  0  0  0  0  0  0  0  0
   20.7635   74.5819   -1.1427 C   0  0  1  0  0  0  0  0  0  0  0  0
   18.9203   73.5184   -0.0758 C   0  0  1  0  0  0  0  0  0  0  0  0
   19.4454   77.8759    0.7928 H   0  0  0  0  0  0  0  0  0  0  0  0
   21.0263   77.7383   -0.3854 H   0  0  0  0  0  0  0  0  0  0  0  0
   17.4053   75.4649    2.0440 H   0  0  0  0  0  0  0  0  0  0  0  0
   18.2754   71.3026   -0.4951 O   0  0  0  0  0  0  0  0  0  0  0  0
   16.6854   72.9159   -0.7565 O   0  0  0  0  0  0  0  0  0  0  0  0
   17.8278   72.5826   -0.4795 C   0  0  0  0  0  0  0  0  0  0  0  0
  1  4  1  0
  1 24  1  0
  1  2  1  6
  1  3  2  0
 25 28  1  0
 25 24  1  0
 25 26  1  6
 25 27  2  0
  6 11  1  0
  6 12  1  0
 29 36  1  0
 29 37  1  0
  9  7  1  1
  7 13  1  0
 10  8  1  1
  8 14  1  0
  4  5  1  0
 36 28  1  1
 33 30  1  6
 30 38  1  0
 34 31  1  1
 31 39  1  0
 35 32  1  1
 32 40  1  0
 41 43  1  0
 15 19  2  0
 42 43  2  0
 16 22  2  0
 12 17  1  6
 17 19  1  0
 17 20  1  0
 18 19  1  0
 18 22  1  0
 18 23  1  0
  9 10  1  0
  9 11  1  0
 10 12  1  0
 11  5  1  6
 33 34  1  0
 33 35  1  0
 34 36  1  0
 35 37  1  0
 37 43  1  6
 20 21  2  0
 21 22  1  0
M  CHG  3   2  -1  26  -1  41  -1
M  END
>  <COMPND>  (146) 
    udp_gluA.pdb 

>  <AUTHOR>  (146) 
    GENERATED BY OPEN BABEL 3.1.1

>  <MASTER>  (146) 
        0    0    0    0    0    0    0    0   56    0   56    0

>  <minimizedAffinity>  (146) 
-7.48815

>  <CNNscore>  (146) 
0.5252559781

>  <CNNaffinity>  (146) 
4.4954595566

>  <CNN_VS>  (146) 
2.3612670898

>  <CNNaffinity_variance>  (146) 
0.0264359228

$$$$
147
     RDKit          3D

 43 45  0  0  0  0  0  0  0  0999 V2000
   22.9538   71.3545   -2.7812 P   0  0  2  0  0  0  0  0  0  0  0  0
   22.3854   72.5820   -3.6693 O   0  0  0  0  0  0  0  0  0  0  0  0
   24.1575   70.6637   -3.3519 O   0  0  0  0  0  0  0  0  0  0  0  0
   21.6567   70.4186   -2.5367 O   0  0  0  0  0  0  0  0  0  0  0  0
   20.8103   70.1356   -3.6358 C   0  0  0  0  0  0  0  0  0  0  0  0
   18.6533   70.9680   -4.2931 O   0  0  0  0  0  0  0  0  0  0  0  0
   17.5361   69.2921   -2.0717 O   0  0  0  0  0  0  0  0  0  0  0  0
   17.0200   67.7764   -4.2790 O   0  0  0  0  0  0  0  0  0  0  0  0
   18.6306   69.0191   -2.9471 C   0  0  1  0  0  0  0  0  0  0  0  0
   18.1211   68.6595   -4.3267 C   0  0  2  0  0  0  0  0  0  0  0  0
   19.3611   70.3291   -3.2086 C   0  0  1  0  0  0  0  0  0  0  0  0
   17.7547   70.0210   -4.8923 C   0  0  2  0  0  0  0  0  0  0  0  0
   17.0541   68.4698   -1.8900 H   0  0  0  0  0  0  0  0  0  0  0  0
   17.3047   66.9242   -3.9120 H   0  0  0  0  0  0  0  0  0  0  0  0
   15.9331   71.3017   -6.6297 O   0  0  0  0  0  0  0  0  0  0  0  0
   18.4105   70.1787  -10.3506 O   0  0  0  0  0  0  0  0  0  0  0  0
   17.8994   70.0785   -6.3194 N   0  0  0  0  0  0  0  0  0  0  0  0
   17.1682   70.7403   -8.4813 N   0  0  0  0  0  0  0  0  0  0  0  0
   16.9275   70.7468   -7.1011 C   0  0  0  0  0  0  0  0  0  0  0  0
   18.9943   69.4793   -6.9303 C   0  0  0  0  0  0  0  0  0  0  0  0
   19.2102   69.4815   -8.2471 C   0  0  0  0  0  0  0  0  0  0  0  0
   18.2418   70.1575   -9.1351 C   0  0  0  0  0  0  0  0  0  0  0  0
   16.5042   71.1976   -9.0463 H   0  0  0  0  0  0  0  0  0  0  0  0
   23.1903   72.0331   -1.3333 O   0  0  0  0  0  0  0  0  0  0  0  0
   22.1895   72.8664   -0.3754 P   0  0  2  0  0  0  0  0  0  0  0  0
   22.8161   72.6405    1.1000 O   0  0  0  0  0  0  0  0  0  0  0  0
   20.7463   72.4724   -0.5013 O   0  0  0  0  0  0  0  0  0  0  0  0
   22.4930   74.4142   -0.7140 O   0  0  0  0  0  0  0  0  0  0  0  0
   23.9347   75.2790   -2.3821 O   0  0  0  0  0  0  0  0  0  0  0  0
   24.0713   78.2601    0.4748 O   0  0  0  0  0  0  0  0  0  0  0  0
   24.1532   75.4484    1.2635 O   0  0  0  0  0  0  0  0  0  0  0  0
   22.5168   78.6357   -1.9528 O   0  0  0  0  0  0  0  0  0  0  0  0
   23.4785   77.1993   -0.2744 C   0  0  2  0  0  0  0  0  0  0  0  0
   24.2865   75.9171   -0.0734 C   0  0  2  0  0  0  0  0  0  0  0  0
   23.4808   77.6041   -1.7502 C   0  0  1  0  0  0  0  0  0  0  0  0
   23.8221   74.8215   -1.0340 C   0  0  1  0  0  0  0  0  0  0  0  0
   23.1294   76.4242   -2.6520 C   0  0  1  0  0  0  0  0  0  0  0  0
   24.0808   78.0253    1.4162 H   0  0  0  0  0  0  0  0  0  0  0  0
   24.4459   76.1387    1.8784 H   0  0  0  0  0  0  0  0  0  0  0  0
   22.7289   79.3925   -1.3845 H   0  0  0  0  0  0  0  0  0  0  0  0
   24.4931   75.9778   -4.5073 O   0  0  0  0  0  0  0  0  0  0  0  0
   22.8609   77.5480   -4.7701 O   0  0  0  0  0  0  0  0  0  0  0  0
   23.4513   76.7323   -4.0781 C   0  0  0  0  0  0  0  0  0  0  0  0
  1  4  1  0
  1 24  1  0
  1  2  1  6
  1  3  2  0
 25 28  1  0
 25 24  1  0
 25 26  1  1
 25 27  2  0
  6 11  1  0
  6 12  1  0
 29 36  1  0
 29 37  1  0
  9  7  1  1
  7 13  1  0
 10  8  1  1
  8 14  1  0
  4  5  1  0
 36 28  1  1
 33 30  1  1
 30 38  1  0
 34 31  1  1
 31 39  1  0
 35 32  1  1
 32 40  1  0
 41 43  1  0
 15 19  2  0
 42 43  2  0
 16 22  2  0
 12 17  1  6
 17 19  1  0
 17 20  1  0
 18 19  1  0
 18 22  1  0
 18 23  1  0
  9 10  1  0
  9 11  1  0
 10 12  1  0
 11  5  1  6
 33 34  1  0
 33 35  1  0
 34 36  1  0
 35 37  1  0
 37 43  1  6
 20 21  2  0
 21 22  1  0
M  CHG  3   2  -1  26  -1  41  -1
M  END
>  <COMPND>  (147) 
    udp_gluA.pdb 

>  <AUTHOR>  (147) 
    GENERATED BY OPEN BABEL 3.1.1

>  <MASTER>  (147) 
        0    0    0    0    0    0    0    0   56    0   56    0

>  <minimizedAffinity>  (147) 
-7.51389

>  <CNNscore>  (147) 
0.4893932939

>  <CNNaffinity>  (147) 
4.5545969009

>  <CNN_VS>  (147) 
2.2289891243

>  <CNNaffinity_variance>  (147) 
0.0140816895

$$$$
148
     RDKit          3D

 43 45  0  0  0  0  0  0  0  0999 V2000
   22.9773   71.3808   -2.8787 P   0  0  2  0  0  0  0  0  0  0  0  0
   22.7201   72.0061   -4.3490 O   0  0  0  0  0  0  0  0  0  0  0  0
   24.2334   70.5708   -2.7456 O   0  0  0  0  0  0  0  0  0  0  0  0
   21.5999   70.6017   -2.5415 O   0  0  0  0  0  0  0  0  0  0  0  0
   20.7699   70.1998   -3.6158 C   0  0  0  0  0  0  0  0  0  0  0  0
   18.6071   70.9929   -4.3021 O   0  0  0  0  0  0  0  0  0  0  0  0
   17.4918   69.3040   -2.0896 O   0  0  0  0  0  0  0  0  0  0  0  0
   17.0292   67.7735   -4.2987 O   0  0  0  0  0  0  0  0  0  0  0  0
   18.6014   69.0475   -2.9507 C   0  0  1  0  0  0  0  0  0  0  0  0
   18.1154   68.6754   -4.3354 C   0  0  2  0  0  0  0  0  0  0  0  0
   19.3124   70.3693   -3.2070 C   0  0  1  0  0  0  0  0  0  0  0  0
   17.7325   70.0288   -4.9095 C   0  0  2  0  0  0  0  0  0  0  0  0
   17.0218   68.4739   -1.9114 H   0  0  0  0  0  0  0  0  0  0  0  0
   17.3240   66.9274   -3.9257 H   0  0  0  0  0  0  0  0  0  0  0  0
   15.9551   71.3464   -6.6649 O   0  0  0  0  0  0  0  0  0  0  0  0
   18.4505   70.1791  -10.3602 O   0  0  0  0  0  0  0  0  0  0  0  0
   17.8938   70.0849   -6.3349 N   0  0  0  0  0  0  0  0  0  0  0  0
   17.1991   70.7629   -8.5038 N   0  0  0  0  0  0  0  0  0  0  0  0
   16.9436   70.7727   -7.1262 C   0  0  0  0  0  0  0  0  0  0  0  0
   18.9834   69.4651   -6.9345 C   0  0  0  0  0  0  0  0  0  0  0  0
   19.2136   69.4644   -8.2490 C   0  0  0  0  0  0  0  0  0  0  0  0
   18.2682   70.1600   -9.1466 C   0  0  0  0  0  0  0  0  0  0  0  0
   16.5503   71.2336   -9.0754 H   0  0  0  0  0  0  0  0  0  0  0  0
   22.9067   72.6771   -1.9156 O   0  0  0  0  0  0  0  0  0  0  0  0
   21.7910   73.8392   -1.7801 P   0  0  2  0  0  0  0  0  0  0  0  0
   22.3861   74.7889   -0.6121 O   0  0  0  0  0  0  0  0  0  0  0  0
   20.4025   73.3322   -1.5174 O   0  0  0  0  0  0  0  0  0  0  0  0
   21.9415   74.7104   -3.1295 O   0  0  0  0  0  0  0  0  0  0  0  0
   21.0216   76.8072   -3.7348 O   0  0  0  0  0  0  0  0  0  0  0  0
   21.1058   74.8453   -7.3696 O   0  0  0  0  0  0  0  0  0  0  0  0
   20.2625   73.4434   -4.9492 O   0  0  0  0  0  0  0  0  0  0  0  0
   23.0753   76.8987   -6.7738 O   0  0  0  0  0  0  0  0  0  0  0  0
   21.5554   75.1731   -6.0549 C   0  0  2  0  0  0  0  0  0  0  0  0
   20.4562   74.8499   -5.0426 C   0  0  2  0  0  0  0  0  0  0  0  0
   21.8829   76.6677   -6.0261 C   0  0  1  0  0  0  0  0  0  0  0  0
   20.8088   75.3971   -3.6588 C   0  0  1  0  0  0  0  0  0  0  0  0
   22.0983   77.1633   -4.5990 C   0  0  1  0  0  0  0  0  0  0  0  0
   20.8916   73.8999   -7.4119 H   0  0  0  0  0  0  0  0  0  0  0  0
   20.0387   73.0895   -5.8239 H   0  0  0  0  0  0  0  0  0  0  0  0
   22.9516   76.5875   -7.6842 H   0  0  0  0  0  0  0  0  0  0  0  0
   23.3140   79.1534   -4.8507 O   0  0  0  0  0  0  0  0  0  0  0  0
   21.1153   79.3432   -4.2772 O   0  0  0  0  0  0  0  0  0  0  0  0
   22.0888   78.6566   -4.5490 C   0  0  0  0  0  0  0  0  0  0  0  0
  1  4  1  0
  1 24  1  0
  1  2  1  6
  1  3  2  0
 25 28  1  0
 25 24  1  0
 25 26  1  1
 25 27  2  0
  6 11  1  0
  6 12  1  0
 29 36  1  0
 29 37  1  0
  9  7  1  1
  7 13  1  0
 10  8  1  1
  8 14  1  0
  4  5  1  0
 36 28  1  6
 33 30  1  6
 30 38  1  0
 34 31  1  1
 31 39  1  0
 35 32  1  6
 32 40  1  0
 41 43  1  0
 15 19  2  0
 42 43  2  0
 16 22  2  0
 12 17  1  6
 17 19  1  0
 17 20  1  0
 18 19  1  0
 18 22  1  0
 18 23  1  0
  9 10  1  0
  9 11  1  0
 10 12  1  0
 11  5  1  6
 33 34  1  0
 33 35  1  0
 34 36  1  0
 35 37  1  0
 37 43  1  6
 20 21  2  0
 21 22  1  0
M  CHG  3   2  -1  26  -1  41  -1
M  END
>  <COMPND>  (148) 
    udp_gluA.pdb 

>  <AUTHOR>  (148) 
    GENERATED BY OPEN BABEL 3.1.1

>  <MASTER>  (148) 
        0    0    0    0    0    0    0    0   56    0   56    0

>  <minimizedAffinity>  (148) 
-6.54114

>  <CNNscore>  (148) 
0.4888530076

>  <CNNaffinity>  (148) 
4.3776521683

>  <CNN_VS>  (148) 
2.1400284767

>  <CNNaffinity_variance>  (148) 
0.1130462661

$$$$
149
     RDKit          3D

 43 45  0  0  0  0  0  0  0  0999 V2000
   18.6576   70.5591   -1.4218 P   0  0  2  0  0  0  0  0  0  0  0  0
   17.0956   70.3495   -1.7892 O   0  0  0  0  0  0  0  0  0  0  0  0
   19.4038   69.3012   -1.0860 O   0  0  0  0  0  0  0  0  0  0  0  0
   18.6366   71.6928   -0.2676 O   0  0  0  0  0  0  0  0  0  0  0  0
   18.6250   73.0540   -0.6571 C   0  0  0  0  0  0  0  0  0  0  0  0
   20.8105   73.1267    0.3408 O   0  0  0  0  0  0  0  0  0  0  0  0
   20.2877   76.0390    0.8271 O   0  0  0  0  0  0  0  0  0  0  0  0
   21.8897   76.0815   -1.3792 O   0  0  0  0  0  0  0  0  0  0  0  0
   19.8988   75.2234   -0.2783 C   0  0  1  0  0  0  0  0  0  0  0  0
   21.0932   74.9355   -1.1631 C   0  0  2  0  0  0  0  0  0  0  0  0
   19.5573   73.8393    0.2563 C   0  0  1  0  0  0  0  0  0  0  0  0
   21.8186   73.8595   -0.3733 C   0  0  2  0  0  0  0  0  0  0  0  0
   20.5107   76.9287    0.5103 H   0  0  0  0  0  0  0  0  0  0  0  0
   21.3834   76.7364   -1.8859 H   0  0  0  0  0  0  0  0  0  0  0  0
   21.6569   73.8350   -3.1928 O   0  0  0  0  0  0  0  0  0  0  0  0
   24.6437   70.3396   -3.5160 O   0  0  0  0  0  0  0  0  0  0  0  0
   22.5433   72.9537   -1.2190 N   0  0  0  0  0  0  0  0  0  0  0  0
   23.1439   72.0935   -3.3510 N   0  0  0  0  0  0  0  0  0  0  0  0
   22.3908   73.0247   -2.6239 C   0  0  0  0  0  0  0  0  0  0  0  0
   23.3942   72.0101   -0.6565 C   0  0  0  0  0  0  0  0  0  0  0  0
   24.1056   71.1290   -1.3626 C   0  0  0  0  0  0  0  0  0  0  0  0
   24.0029   71.1358   -2.8366 C   0  0  0  0  0  0  0  0  0  0  0  0
   23.0527   72.1222   -4.3309 H   0  0  0  0  0  0  0  0  0  0  0  0
   19.2284   71.3581   -2.7057 O   0  0  0  0  0  0  0  0  0  0  0  0
   19.4796   70.8782   -4.2290 P   0  0  2  0  0  0  0  0  0  0  0  0
   18.5561   69.5550   -4.3569 O   0  0  0  0  0  0  0  0  0  0  0  0
   20.9240   70.6602   -4.5757 O   0  0  0  0  0  0  0  0  0  0  0  0
   18.7333   71.9848   -5.1350 O   0  0  0  0  0  0  0  0  0  0  0  0
   19.5454   71.3778   -7.2754 O   0  0  0  0  0  0  0  0  0  0  0  0
   16.4800   73.9727   -8.2441 O   0  0  0  0  0  0  0  0  0  0  0  0
   18.2911   74.5796   -6.0337 O   0  0  0  0  0  0  0  0  0  0  0  0
   16.1208   71.1057   -8.5641 O   0  0  0  0  0  0  0  0  0  0  0  0
   17.1534   72.9844   -7.4644 C   0  0  2  0  0  0  0  0  0  0  0  0
   18.4942   73.5389   -6.9826 C   0  0  2  0  0  0  0  0  0  0  0  0
   17.3727   71.7540   -8.3476 C   0  0  1  0  0  0  0  0  0  0  0  0
   19.3426   72.4395   -6.3420 C   0  0  1  0  0  0  0  0  0  0  0  0
   18.3291   70.7616   -7.6927 C   0  0  1  0  0  0  0  0  0  0  0  0
   16.3298   74.7641   -7.7035 H   0  0  0  0  0  0  0  0  0  0  0  0
   17.7532   75.2806   -6.4333 H   0  0  0  0  0  0  0  0  0  0  0  0
   15.5028   71.7267   -8.9804 H   0  0  0  0  0  0  0  0  0  0  0  0
   18.2987   70.0098   -9.9143 O   0  0  0  0  0  0  0  0  0  0  0  0
   19.5171   68.7918   -8.4207 O   0  0  0  0  0  0  0  0  0  0  0  0
   18.7920   69.7404   -8.6802 C   0  0  0  0  0  0  0  0  0  0  0  0
  1  4  1  0
  1 24  1  0
  1  2  1  6
  1  3  2  0
 25 28  1  0
 25 24  1  0
 25 26  1  1
 25 27  2  0
  6 11  1  0
  6 12  1  0
 29 36  1  0
 29 37  1  0
  9  7  1  1
  7 13  1  0
 10  8  1  1
  8 14  1  0
  4  5  1  0
 36 28  1  1
 33 30  1  6
 30 38  1  0
 34 31  1  1
 31 39  1  0
 35 32  1  1
 32 40  1  0
 41 43  1  0
 15 19  2  0
 42 43  2  0
 16 22  2  0
 12 17  1  6
 17 19  1  0
 17 20  1  0
 18 19  1  0
 18 22  1  0
 18 23  1  0
  9 10  1  0
  9 11  1  0
 10 12  1  0
 11  5  1  6
 33 34  1  0
 33 35  1  0
 34 36  1  0
 35 37  1  0
 37 43  1  6
 20 21  2  0
 21 22  1  0
M  CHG  3   2  -1  26  -1  41  -1
M  END
>  <COMPND>  (149) 
    udp_gluA.pdb 

>  <AUTHOR>  (149) 
    GENERATED BY OPEN BABEL 3.1.1

>  <MASTER>  (149) 
        0    0    0    0    0    0    0    0   56    0   56    0

>  <minimizedAffinity>  (149) 
-7.69426

>  <CNNscore>  (149) 
0.4803988934

>  <CNNaffinity>  (149) 
4.1193628311

>  <CNN_VS>  (149) 
1.9789373875

>  <CNNaffinity_variance>  (149) 
0.4250997603

$$$$
150
     RDKit          3D

 43 45  0  0  0  0  0  0  0  0999 V2000
   18.5596   69.1955   -4.1725 P   0  0  2  0  0  0  0  0  0  0  0  0
   19.3241   67.9724   -3.4386 O   0  0  0  0  0  0  0  0  0  0  0  0
   17.0655   69.0672   -4.2271 O   0  0  0  0  0  0  0  0  0  0  0  0
   19.3070   69.3189   -5.6022 O   0  0  0  0  0  0  0  0  0  0  0  0
   19.1228   70.4995   -6.3617 C   0  0  0  0  0  0  0  0  0  0  0  0
   16.9011   70.3671   -7.2694 O   0  0  0  0  0  0  0  0  0  0  0  0
   18.2028   70.4048   -9.9704 O   0  0  0  0  0  0  0  0  0  0  0  0
   17.3467   72.9781   -9.6855 O   0  0  0  0  0  0  0  0  0  0  0  0
   18.5798   71.0902   -8.7760 C   0  0  1  0  0  0  0  0  0  0  0  0
   17.6358   72.2445   -8.5139 C   0  0  2  0  0  0  0  0  0  0  0  0
   18.2938   70.1707   -7.5966 C   0  0  1  0  0  0  0  0  0  0  0  0
   16.4160   71.5334   -7.9532 C   0  0  2  0  0  0  0  0  0  0  0  0
   18.3763   70.9727  -10.7379 H   0  0  0  0  0  0  0  0  0  0  0  0
   18.1547   73.4121  -10.0029 H   0  0  0  0  0  0  0  0  0  0  0  0
   14.3245   73.2885   -8.6757 O   0  0  0  0  0  0  0  0  0  0  0  0
   13.6814   74.6125   -4.3079 O   0  0  0  0  0  0  0  0  0  0  0  0
   15.6849   72.3487   -7.0250 N   0  0  0  0  0  0  0  0  0  0  0  0
   14.0069   73.9470   -6.4997 N   0  0  0  0  0  0  0  0  0  0  0  0
   14.6525   73.1965   -7.4912 C   0  0  0  0  0  0  0  0  0  0  0  0
   15.9913   72.3024   -5.6704 C   0  0  0  0  0  0  0  0  0  0  0  0
   15.3670   73.0236   -4.7372 C   0  0  0  0  0  0  0  0  0  0  0  0
   14.2765   73.9354   -5.1408 C   0  0  0  0  0  0  0  0  0  0  0  0
   13.2859   74.5462   -6.8004 H   0  0  0  0  0  0  0  0  0  0  0  0
   19.0951   70.4921   -3.3694 O   0  0  0  0  0  0  0  0  0  0  0  0
   18.6682   71.1032   -1.9349 P   0  0  2  0  0  0  0  0  0  0  0  0
   18.8567   69.8498   -0.9280 O   0  0  0  0  0  0  0  0  0  0  0  0
   17.2978   71.7159   -1.9097 O   0  0  0  0  0  0  0  0  0  0  0  0
   19.8622   72.1176   -1.5503 O   0  0  0  0  0  0  0  0  0  0  0  0
   21.8772   71.1286   -0.7949 O   0  0  0  0  0  0  0  0  0  0  0  0
   22.4724   75.0989    0.1799 O   0  0  0  0  0  0  0  0  0  0  0  0
   19.8791   73.8343    0.6380 O   0  0  0  0  0  0  0  0  0  0  0  0
   23.8250   73.9421   -2.1186 O   0  0  0  0  0  0  0  0  0  0  0  0
   21.9655   74.0074   -0.5880 C   0  0  2  0  0  0  0  0  0  0  0  0
   21.0692   73.1354    0.2917 C   0  0  2  0  0  0  0  0  0  0  0  0
   23.1574   73.1969   -1.1020 C   0  0  1  0  0  0  0  0  0  0  0  0
   20.6940   71.8380   -0.4258 C   0  0  1  0  0  0  0  0  0  0  0  0
   22.7110   71.8614   -1.6898 C   0  0  1  0  0  0  0  0  0  0  0  0
   21.7326   75.6283    0.5172 H   0  0  0  0  0  0  0  0  0  0  0  0
   20.1097   74.6588    1.0934 H   0  0  0  0  0  0  0  0  0  0  0  0
   24.1142   74.7947   -1.7575 H   0  0  0  0  0  0  0  0  0  0  0  0
   24.1748   70.8228   -3.1999 O   0  0  0  0  0  0  0  0  0  0  0  0
   24.4905   70.3933   -0.9830 O   0  0  0  0  0  0  0  0  0  0  0  0
   23.8790   70.9497   -1.8826 C   0  0  0  0  0  0  0  0  0  0  0  0
  1  4  1  0
  1 24  1  0
  1  2  1  1
  1  3  2  0
 25 28  1  0
 25 24  1  0
 25 26  1  1
 25 27  2  0
  6 11  1  0
  6 12  1  0
 29 36  1  0
 29 37  1  0
  9  7  1  6
  7 13  1  0
 10  8  1  6
  8 14  1  0
  4  5  1  0
 36 28  1  6
 33 30  1  1
 30 38  1  0
 34 31  1  6
 31 39  1  0
 35 32  1  6
 32 40  1  0
 41 43  1  0
 15 19  2  0
 42 43  2  0
 16 22  2  0
 12 17  1  1
 17 19  1  0
 17 20  1  0
 18 19  1  0
 18 22  1  0
 18 23  1  0
  9 10  1  0
  9 11  1  0
 10 12  1  0
 11  5  1  1
 33 34  1  0
 33 35  1  0
 34 36  1  0
 35 37  1  0
 37 43  1  1
 20 21  2  0
 21 22  1  0
M  CHG  3   2  -1  26  -1  41  -1
M  END
>  <COMPND>  (150) 
    udp_gluA.pdb 

>  <AUTHOR>  (150) 
    GENERATED BY OPEN BABEL 3.1.1

>  <MASTER>  (150) 
        0    0    0    0    0    0    0    0   56    0   56    0

>  <minimizedAffinity>  (150) 
-8.18800

>  <CNNscore>  (150) 
0.4647026062

>  <CNNaffinity>  (150) 
4.3095412254

>  <CNN_VS>  (150) 
2.0026550293

>  <CNNaffinity_variance>  (150) 
0.2283852547

$$$$
151
     RDKit          3D

 43 45  0  0  0  0  0  0  0  0999 V2000
   19.3287   71.0625   -1.1615 P   0  0  2  0  0  0  0  0  0  0  0  0
   20.9039   70.6967   -1.2241 O   0  0  0  0  0  0  0  0  0  0  0  0
   18.9063   71.8387    0.0513 O   0  0  0  0  0  0  0  0  0  0  0  0
   18.5904   69.6390   -1.3771 O   0  0  0  0  0  0  0  0  0  0  0  0
   18.9870   68.8302   -2.4694 C   0  0  0  0  0  0  0  0  0  0  0  0
   16.6118   68.5248   -2.2624 O   0  0  0  0  0  0  0  0  0  0  0  0
   16.7260   67.2557   -4.9768 O   0  0  0  0  0  0  0  0  0  0  0  0
   15.8070   69.7629   -5.5294 O   0  0  0  0  0  0  0  0  0  0  0  0
   17.4769   68.3551   -4.4609 C   0  0  1  0  0  0  0  0  0  0  0  0
   16.6067   69.5913   -4.3780 C   0  0  2  0  0  0  0  0  0  0  0  0
   17.7727   68.0748   -2.9939 C   0  0  1  0  0  0  0  0  0  0  0  0
   15.7845   69.3151   -3.1308 C   0  0  2  0  0  0  0  0  0  0  0  0
   16.5250   67.4120   -5.9132 H   0  0  0  0  0  0  0  0  0  0  0  0
   16.3766   69.9363   -6.2958 H   0  0  0  0  0  0  0  0  0  0  0  0
   13.8354   69.4440   -1.0910 O   0  0  0  0  0  0  0  0  0  0  0  0
   14.4115   73.9879   -0.5759 O   0  0  0  0  0  0  0  0  0  0  0  0
   15.4055   70.5189   -2.4466 N   0  0  0  0  0  0  0  0  0  0  0  0
   14.1234   71.7071   -0.8371 N   0  0  0  0  0  0  0  0  0  0  0  0
   14.4151   70.4750   -1.4370 C   0  0  0  0  0  0  0  0  0  0  0  0
   16.0132   71.7244   -2.7758 C   0  0  0  0  0  0  0  0  0  0  0  0
   15.7247   72.8907   -2.1950 C   0  0  0  0  0  0  0  0  0  0  0  0
   14.7003   72.9321   -1.1309 C   0  0  0  0  0  0  0  0  0  0  0  0
   13.4355   71.7021   -0.1327 H   0  0  0  0  0  0  0  0  0  0  0  0
   19.0759   71.8196   -2.5672 O   0  0  0  0  0  0  0  0  0  0  0  0
   20.0597   72.0836   -3.8226 P   0  0  2  0  0  0  0  0  0  0  0  0
   20.8676   70.6875   -3.9593 O   0  0  0  0  0  0  0  0  0  0  0  0
   20.9363   73.2934   -3.6743 O   0  0  0  0  0  0  0  0  0  0  0  0
   19.0843   72.1170   -5.1071 O   0  0  0  0  0  0  0  0  0  0  0  0
   19.7467   71.4114   -7.2687 O   0  0  0  0  0  0  0  0  0  0  0  0
   16.5859   73.9259   -8.1370 O   0  0  0  0  0  0  0  0  0  0  0  0
   18.5445   74.6594   -6.0974 O   0  0  0  0  0  0  0  0  0  0  0  0
   16.2415   71.0433   -8.2886 O   0  0  0  0  0  0  0  0  0  0  0  0
   17.3268   72.9842   -7.3610 C   0  0  2  0  0  0  0  0  0  0  0  0
   18.6917   73.5746   -7.0063 C   0  0  2  0  0  0  0  0  0  0  0  0
   17.4974   71.7133   -8.1963 C   0  0  1  0  0  0  0  0  0  0  0  0
   19.5985   72.5164   -6.3762 C   0  0  1  0  0  0  0  0  0  0  0  0
   18.5115   70.7638   -7.5651 C   0  0  1  0  0  0  0  0  0  0  0  0
   16.4650   74.7420   -7.6264 H   0  0  0  0  0  0  0  0  0  0  0  0
   17.9701   75.3345   -6.4907 H   0  0  0  0  0  0  0  0  0  0  0  0
   15.5870   71.6369   -8.6886 H   0  0  0  0  0  0  0  0  0  0  0  0
   18.2670   69.8549   -9.7135 O   0  0  0  0  0  0  0  0  0  0  0  0
   19.7183   68.8081   -8.3004 O   0  0  0  0  0  0  0  0  0  0  0  0
   18.9147   69.6989   -8.5324 C   0  0  0  0  0  0  0  0  0  0  0  0
  1  4  1  0
  1 24  1  0
  1  2  1  1
  1  3  2  0
 25 28  1  0
 25 24  1  0
 25 26  1  6
 25 27  2  0
  6 11  1  0
  6 12  1  0
 29 36  1  0
 29 37  1  0
  9  7  1  1
  7 13  1  0
 10  8  1  6
  8 14  1  0
  4  5  1  0
 36 28  1  1
 33 30  1  6
 30 38  1  0
 34 31  1  1
 31 39  1  0
 35 32  1  1
 32 40  1  0
 41 43  1  0
 15 19  2  0
 42 43  2  0
 16 22  2  0
 12 17  1  1
 17 19  1  0
 17 20  1  0
 18 19  1  0
 18 22  1  0
 18 23  1  0
  9 10  1  0
  9 11  1  0
 10 12  1  0
 11  5  1  1
 33 34  1  0
 33 35  1  0
 34 36  1  0
 35 37  1  0
 37 43  1  6
 20 21  2  0
 21 22  1  0
M  CHG  3   2  -1  26  -1  41  -1
M  END
>  <COMPND>  (151) 
    udp_gluA.pdb 

>  <AUTHOR>  (151) 
    GENERATED BY OPEN BABEL 3.1.1

>  <MASTER>  (151) 
        0    0    0    0    0    0    0    0   56    0   56    0

>  <minimizedAffinity>  (151) 
-7.64189

>  <CNNscore>  (151) 
0.4520673752

>  <CNNaffinity>  (151) 
4.1049995422

>  <CNN_VS>  (151) 
1.8557363749

>  <CNNaffinity_variance>  (151) 
0.4258284569

$$$$
152
     RDKit          3D

 43 45  0  0  0  0  0  0  0  0999 V2000
   20.9472   71.2218   -1.2197 P   0  0  2  0  0  0  0  0  0  0  0  0
   22.3904   71.0250   -0.5144 O   0  0  0  0  0  0  0  0  0  0  0  0
   19.8156   71.5103   -0.2773 O   0  0  0  0  0  0  0  0  0  0  0  0
   20.7787   69.8988   -2.1357 O   0  0  0  0  0  0  0  0  0  0  0  0
   20.1370   70.0231   -3.3915 C   0  0  0  0  0  0  0  0  0  0  0  0
   18.0495   70.7866   -4.3067 O   0  0  0  0  0  0  0  0  0  0  0  0
   16.7309   68.8928   -2.3920 O   0  0  0  0  0  0  0  0  0  0  0  0
   16.6373   67.5206   -4.7466 O   0  0  0  0  0  0  0  0  0  0  0  0
   17.9557   68.7442   -3.1105 C   0  0  1  0  0  0  0  0  0  0  0  0
   17.6754   68.4620   -4.5713 C   0  0  2  0  0  0  0  0  0  0  0  0
   18.6318   70.1070   -3.1733 C   0  0  1  0  0  0  0  0  0  0  0  0
   17.3092   69.8405   -5.0943 C   0  0  2  0  0  0  0  0  0  0  0  0
   16.2808   68.0347   -2.3387 H   0  0  0  0  0  0  0  0  0  0  0  0
   16.9194   66.6598   -4.3983 H   0  0  0  0  0  0  0  0  0  0  0  0
   15.7410   71.2587   -6.9667 O   0  0  0  0  0  0  0  0  0  0  0  0
   18.7346   70.4337  -10.3729 O   0  0  0  0  0  0  0  0  0  0  0  0
   17.6552   70.0119   -6.4769 N   0  0  0  0  0  0  0  0  0  0  0  0
   17.2330   70.8456   -8.6616 N   0  0  0  0  0  0  0  0  0  0  0  0
   16.7980   70.7419   -7.3338 C   0  0  0  0  0  0  0  0  0  0  0  0
   18.8319   69.4620   -6.9707 C   0  0  0  0  0  0  0  0  0  0  0  0
   19.2333   69.5693   -8.2388 C   0  0  0  0  0  0  0  0  0  0  0  0
   18.3946   70.3155   -9.1996 C   0  0  0  0  0  0  0  0  0  0  0  0
   16.6517   71.3476   -9.2776 H   0  0  0  0  0  0  0  0  0  0  0  0
   21.2303   72.3833   -2.3076 O   0  0  0  0  0  0  0  0  0  0  0  0
   22.6167   72.9792   -2.8877 P   0  0  2  0  0  0  0  0  0  0  0  0
   23.4428   71.6519   -3.3074 O   0  0  0  0  0  0  0  0  0  0  0  0
   23.3436   73.8850   -1.9364 O   0  0  0  0  0  0  0  0  0  0  0  0
   22.2118   73.6669   -4.2897 O   0  0  0  0  0  0  0  0  0  0  0  0
   20.4744   72.8484   -5.6756 O   0  0  0  0  0  0  0  0  0  0  0  0
   22.7468   75.0104   -8.3645 O   0  0  0  0  0  0  0  0  0  0  0  0
   24.0347   73.3184   -6.3613 O   0  0  0  0  0  0  0  0  0  0  0  0
   20.2302   76.0861   -7.3844 O   0  0  0  0  0  0  0  0  0  0  0  0
   22.1788   74.6995   -7.0922 C   0  0  2  0  0  0  0  0  0  0  0  0
   22.6415   73.3108   -6.6507 C   0  0  2  0  0  0  0  0  0  0  0  0
   20.6554   74.7330   -7.2335 C   0  0  1  0  0  0  0  0  0  0  0  0
   21.8774   72.8486   -5.4092 C   0  0  1  0  0  0  0  0  0  0  0  0
   19.9689   74.1400   -6.0064 C   0  0  1  0  0  0  0  0  0  0  0  0
   23.7146   74.9950   -8.2991 H   0  0  0  0  0  0  0  0  0  0  0  0
   24.5256   73.6110   -7.1446 H   0  0  0  0  0  0  0  0  0  0  0  0
   20.6600   76.4753   -8.1619 H   0  0  0  0  0  0  0  0  0  0  0  0
   18.3164   73.6982   -7.6112 O   0  0  0  0  0  0  0  0  0  0  0  0
   17.6469   73.8193   -5.4349 O   0  0  0  0  0  0  0  0  0  0  0  0
   18.5249   73.8744   -6.2829 C   0  0  0  0  0  0  0  0  0  0  0  0
  1  4  1  0
  1 24  1  0
  1  2  1  1
  1  3  2  0
 25 28  1  0
 25 24  1  0
 25 26  1  6
 25 27  2  0
  6 11  1  0
  6 12  1  0
 29 36  1  0
 29 37  1  0
  9  7  1  1
  7 13  1  0
 10  8  1  1
  8 14  1  0
  4  5  1  0
 36 28  1  1
 33 30  1  6
 30 38  1  0
 34 31  1  1
 31 39  1  0
 35 32  1  1
 32 40  1  0
 41 43  1  0
 15 19  2  0
 42 43  2  0
 16 22  2  0
 12 17  1  6
 17 19  1  0
 17 20  1  0
 18 19  1  0
 18 22  1  0
 18 23  1  0
  9 10  1  0
  9 11  1  0
 10 12  1  0
 11  5  1  6
 33 34  1  0
 33 35  1  0
 34 36  1  0
 35 37  1  0
 37 43  1  6
 20 21  2  0
 21 22  1  0
M  CHG  3   2  -1  26  -1  41  -1
M  END
>  <COMPND>  (152) 
    udp_gluA.pdb 

>  <AUTHOR>  (152) 
    GENERATED BY OPEN BABEL 3.1.1

>  <MASTER>  (152) 
        0    0    0    0    0    0    0    0   56    0   56    0

>  <minimizedAffinity>  (152) 
-7.65132

>  <CNNscore>  (152) 
0.4362611175

>  <CNNaffinity>  (152) 
4.1708779335

>  <CNN_VS>  (152) 
1.8195918798

>  <CNNaffinity_variance>  (152) 
0.8159198761

$$$$
153
     RDKit          3D

 43 45  0  0  0  0  0  0  0  0999 V2000
   16.5770   73.0121   -2.6702 P   0  0  2  0  0  0  0  0  0  0  0  0
   15.1342   73.0401   -1.9378 O   0  0  0  0  0  0  0  0  0  0  0  0
   17.4211   74.2338   -2.4539 O   0  0  0  0  0  0  0  0  0  0  0  0
   16.2240   72.6656   -4.2107 O   0  0  0  0  0  0  0  0  0  0  0  0
   16.2968   73.7035   -5.1709 C   0  0  0  0  0  0  0  0  0  0  0  0
   18.2463   72.3507   -5.5547 O   0  0  0  0  0  0  0  0  0  0  0  0
   18.0758   73.2448   -8.4118 O   0  0  0  0  0  0  0  0  0  0  0  0
   16.9909   70.7447   -8.5041 O   0  0  0  0  0  0  0  0  0  0  0  0
   17.0235   72.9550   -7.4913 C   0  0  1  0  0  0  0  0  0  0  0  0
   16.9008   71.4595   -7.2894 C   0  0  2  0  0  0  0  0  0  0  0  0
   17.4624   73.4278   -6.1121 C   0  0  1  0  0  0  0  0  0  0  0  0
   18.0625   71.1713   -6.3537 C   0  0  2  0  0  0  0  0  0  0  0  0
   17.8184   72.9516   -9.3003 H   0  0  0  0  0  0  0  0  0  0  0  0
   16.2289   70.9622   -9.0644 H   0  0  0  0  0  0  0  0  0  0  0  0
   20.0527   69.7747   -4.9166 O   0  0  0  0  0  0  0  0  0  0  0  0
   16.9582   66.9072   -3.0604 O   0  0  0  0  0  0  0  0  0  0  0  0
   17.8047   70.0559   -5.4875 N   0  0  0  0  0  0  0  0  0  0  0  0
   18.5097   68.3472   -3.9943 N   0  0  0  0  0  0  0  0  0  0  0  0
   18.8757   69.4245   -4.8119 C   0  0  0  0  0  0  0  0  0  0  0  0
   16.5039   69.5995   -5.3129 C   0  0  0  0  0  0  0  0  0  0  0  0
   16.1705   68.5715   -4.5300 C   0  0  0  0  0  0  0  0  0  0  0  0
   17.2304   67.8564   -3.7893 C   0  0  0  0  0  0  0  0  0  0  0  0
   19.2385   67.8905   -3.5152 H   0  0  0  0  0  0  0  0  0  0  0  0
   17.2319   71.6368   -2.1293 O   0  0  0  0  0  0  0  0  0  0  0  0
   18.6017   71.3615   -1.3159 P   0  0  2  0  0  0  0  0  0  0  0  0
   18.7222   69.7473   -1.3302 O   0  0  0  0  0  0  0  0  0  0  0  0
   18.6372   71.9722    0.0551 O   0  0  0  0  0  0  0  0  0  0  0  0
   19.7729   71.8659   -2.3041 O   0  0  0  0  0  0  0  0  0  0  0  0
   21.7875   72.4472   -1.2030 O   0  0  0  0  0  0  0  0  0  0  0  0
   22.5112   73.7882   -5.0430 O   0  0  0  0  0  0  0  0  0  0  0  0
   19.9048   74.2114   -3.7932 O   0  0  0  0  0  0  0  0  0  0  0  0
   23.7575   71.3396   -4.0934 O   0  0  0  0  0  0  0  0  0  0  0  0
   21.9524   72.9347   -4.0444 C   0  0  2  0  0  0  0  0  0  0  0  0
   21.0653   73.7552   -3.1078 C   0  0  2  0  0  0  0  0  0  0  0  0
   23.1065   72.3006   -3.2646 C   0  0  1  0  0  0  0  0  0  0  0  0
   20.6350   72.9268   -1.8965 C   0  0  1  0  0  0  0  0  0  0  0  0
   22.6084   71.5999   -2.0039 C   0  0  1  0  0  0  0  0  0  0  0  0
   21.7962   74.2024   -5.5515 H   0  0  0  0  0  0  0  0  0  0  0  0
   20.1704   74.7376   -4.5632 H   0  0  0  0  0  0  0  0  0  0  0  0
   24.0792   71.7727   -4.8995 H   0  0  0  0  0  0  0  0  0  0  0  0
   24.6384   70.4623   -1.7096 O   0  0  0  0  0  0  0  0  0  0  0  0
   23.8669   71.6860    0.0529 O   0  0  0  0  0  0  0  0  0  0  0  0
   23.7468   71.2762   -1.0919 C   0  0  0  0  0  0  0  0  0  0  0  0
  1  4  1  0
  1 24  1  0
  1  2  1  1
  1  3  2  0
 25 28  1  0
 25 24  1  0
 25 26  1  1
 25 27  2  0
  6 11  1  0
  6 12  1  0
 29 36  1  0
 29 37  1  0
  9  7  1  6
  7 13  1  0
 10  8  1  6
  8 14  1  0
  4  5  1  0
 36 28  1  6
 33 30  1  6
 30 38  1  0
 34 31  1  6
 31 39  1  0
 35 32  1  6
 32 40  1  0
 41 43  1  0
 15 19  2  0
 42 43  2  0
 16 22  2  0
 12 17  1  1
 17 19  1  0
 17 20  1  0
 18 19  1  0
 18 22  1  0
 18 23  1  0
  9 10  1  0
  9 11  1  0
 10 12  1  0
 11  5  1  1
 33 34  1  0
 33 35  1  0
 34 36  1  0
 35 37  1  0
 37 43  1  1
 20 21  2  0
 21 22  1  0
M  CHG  3   2  -1  26  -1  41  -1
M  END
>  <COMPND>  (153) 
    udp_gluA.pdb 

>  <AUTHOR>  (153) 
    GENERATED BY OPEN BABEL 3.1.1

>  <MASTER>  (153) 
        0    0    0    0    0    0    0    0   56    0   56    0

>  <minimizedAffinity>  (153) 
-7.08646

>  <CNNscore>  (153) 
0.4210347831

>  <CNNaffinity>  (153) 
4.0714998245

>  <CNN_VS>  (153) 
1.7142430544

>  <CNNaffinity_variance>  (153) 
0.6005307436

$$$$
154
     RDKit          3D

 43 45  0  0  0  0  0  0  0  0999 V2000
   18.2109   73.3399   -3.5320 P   0  0  2  0  0  0  0  0  0  0  0  0
   17.0611   73.3297   -2.3932 O   0  0  0  0  0  0  0  0  0  0  0  0
   19.2153   74.4478   -3.4082 O   0  0  0  0  0  0  0  0  0  0  0  0
   17.3824   73.2944   -4.9210 O   0  0  0  0  0  0  0  0  0  0  0  0
   17.6420   74.2878   -5.8959 C   0  0  0  0  0  0  0  0  0  0  0  0
   18.5148   72.3175   -6.9606 O   0  0  0  0  0  0  0  0  0  0  0  0
   17.0656   73.2315   -9.4215 O   0  0  0  0  0  0  0  0  0  0  0  0
   15.4083   71.3034   -8.4356 O   0  0  0  0  0  0  0  0  0  0  0  0
   16.6783   73.3410   -8.0517 C   0  0  1  0  0  0  0  0  0  0  0  0
   16.2361   71.9932   -7.5226 C   0  0  2  0  0  0  0  0  0  0  0  0
   17.9311   73.6107   -7.2294 C   0  0  1  0  0  0  0  0  0  0  0  0
   17.5647   71.2929   -7.2936 C   0  0  2  0  0  0  0  0  0  0  0  0
   16.2816   73.0591   -9.9667 H   0  0  0  0  0  0  0  0  0  0  0  0
   14.5753   71.7888   -8.5472 H   0  0  0  0  0  0  0  0  0  0  0  0
   19.5896   69.4112   -6.7144 O   0  0  0  0  0  0  0  0  0  0  0  0
   17.2311   67.6994   -3.1436 O   0  0  0  0  0  0  0  0  0  0  0  0
   17.5056   70.3436   -6.2183 N   0  0  0  0  0  0  0  0  0  0  0  0
   18.4125   68.5598   -4.9371 N   0  0  0  0  0  0  0  0  0  0  0  0
   18.5763   69.4416   -6.0135 C   0  0  0  0  0  0  0  0  0  0  0  0
   16.3979   70.3135   -5.3798 C   0  0  0  0  0  0  0  0  0  0  0  0
   16.2562   69.4672   -4.3578 C   0  0  0  0  0  0  0  0  0  0  0  0
   17.3293   68.4914   -4.0759 C   0  0  0  0  0  0  0  0  0  0  0  0
   19.1441   67.9209   -4.7760 H   0  0  0  0  0  0  0  0  0  0  0  0
   18.8341   71.8518   -3.4317 O   0  0  0  0  0  0  0  0  0  0  0  0
   19.7092   71.1435   -2.2714 P   0  0  2  0  0  0  0  0  0  0  0  0
   20.4432   69.9294   -3.0508 O   0  0  0  0  0  0  0  0  0  0  0  0
   18.9122   70.7167   -1.0728 O   0  0  0  0  0  0  0  0  0  0  0  0
   20.8903   72.1943   -1.9504 O   0  0  0  0  0  0  0  0  0  0  0  0
   22.7625   72.0362   -3.3923 O   0  0  0  0  0  0  0  0  0  0  0  0
   24.1598   74.6114   -0.4796 O   0  0  0  0  0  0  0  0  0  0  0  0
   22.5869   72.2610    0.2526 O   0  0  0  0  0  0  0  0  0  0  0  0
   23.3799   75.6399   -3.0844 O   0  0  0  0  0  0  0  0  0  0  0  0
   23.1797   74.0074   -1.3238 C   0  0  2  0  0  0  0  0  0  0  0  0
   23.1192   72.5055   -1.0442 C   0  0  2  0  0  0  0  0  0  0  0  0
   23.5856   74.2623   -2.7771 C   0  0  1  0  0  0  0  0  0  0  0  0
   22.2521   71.7905   -2.0814 C   0  0  1  0  0  0  0  0  0  0  0  0
   22.7586   73.4184   -3.7427 C   0  0  1  0  0  0  0  0  0  0  0  0
   23.9228   74.4623    0.4493 H   0  0  0  0  0  0  0  0  0  0  0  0
   23.1321   72.7121    0.9157 H   0  0  0  0  0  0  0  0  0  0  0  0
   23.9007   76.1880   -2.4768 H   0  0  0  0  0  0  0  0  0  0  0  0
   22.6313   72.6719   -5.9626 O   0  0  0  0  0  0  0  0  0  0  0  0
   24.3916   74.0142   -5.4159 O   0  0  0  0  0  0  0  0  0  0  0  0
   23.3695   73.4205   -5.1062 C   0  0  0  0  0  0  0  0  0  0  0  0
  1  4  1  0
  1 24  1  0
  1  2  1  1
  1  3  2  0
 25 28  1  0
 25 24  1  0
 25 26  1  6
 25 27  2  0
  6 11  1  0
  6 12  1  0
 29 36  1  0
 29 37  1  0
  9  7  1  6
  7 13  1  0
 10  8  1  6
  8 14  1  0
  4  5  1  0
 36 28  1  6
 33 30  1  1
 30 38  1  0
 34 31  1  1
 31 39  1  0
 35 32  1  6
 32 40  1  0
 41 43  1  0
 15 19  2  0
 42 43  2  0
 16 22  2  0
 12 17  1  1
 17 19  1  0
 17 20  1  0
 18 19  1  0
 18 22  1  0
 18 23  1  0
  9 10  1  0
  9 11  1  0
 10 12  1  0
 11  5  1  1
 33 34  1  0
 33 35  1  0
 34 36  1  0
 35 37  1  0
 37 43  1  6
 20 21  2  0
 21 22  1  0
M  CHG  3   2  -1  26  -1  41  -1
M  END
>  <COMPND>  (154) 
    udp_gluA.pdb 

>  <AUTHOR>  (154) 
    GENERATED BY OPEN BABEL 3.1.1

>  <MASTER>  (154) 
        0    0    0    0    0    0    0    0   56    0   56    0

>  <minimizedAffinity>  (154) 
-6.87846

>  <CNNscore>  (154) 
0.4137566984

>  <CNNaffinity>  (154) 
4.0919623375

>  <CNN_VS>  (154) 
1.6930768490

>  <CNNaffinity_variance>  (154) 
0.4070053101

$$$$
155
     RDKit          3D

 43 45  0  0  0  0  0  0  0  0999 V2000
   16.5750   70.7054   -6.4465 P   0  0  2  0  0  0  0  0  0  0  0  0
   16.2925   72.0249   -5.5532 O   0  0  0  0  0  0  0  0  0  0  0  0
   15.8858   70.6830   -7.7793 O   0  0  0  0  0  0  0  0  0  0  0  0
   16.2207   69.4795   -5.4516 O   0  0  0  0  0  0  0  0  0  0  0  0
   17.2821   68.8229   -4.7832 C   0  0  0  0  0  0  0  0  0  0  0  0
   17.9931   68.8039   -2.4872 O   0  0  0  0  0  0  0  0  0  0  0  0
   15.0794   68.7826   -1.7790 O   0  0  0  0  0  0  0  0  0  0  0  0
   15.7651   71.3949   -1.4025 O   0  0  0  0  0  0  0  0  0  0  0  0
   15.7429   69.4455   -2.8556 C   0  0  1  0  0  0  0  0  0  0  0  0
   16.5092   70.6451   -2.3397 C   0  0  2  0  0  0  0  0  0  0  0  0
   16.8632   68.5388   -3.3464 C   0  0  1  0  0  0  0  0  0  0  0  0
   17.7371   69.9946   -1.7256 C   0  0  2  0  0  0  0  0  0  0  0  0
   14.3593   69.3428   -1.4487 H   0  0  0  0  0  0  0  0  0  0  0  0
   14.9945   71.7886   -1.8421 H   0  0  0  0  0  0  0  0  0  0  0  0
   20.2626   69.3240   -0.6538 O   0  0  0  0  0  0  0  0  0  0  0  0
   22.1025   73.3283   -2.0044 O   0  0  0  0  0  0  0  0  0  0  0  0
   18.8935   70.8434   -1.7832 N   0  0  0  0  0  0  0  0  0  0  0  0
   21.1763   71.3194   -1.3266 N   0  0  0  0  0  0  0  0  0  0  0  0
   20.1148   70.4119   -1.2138 C   0  0  0  0  0  0  0  0  0  0  0  0
   18.8117   72.0862   -2.3994 C   0  0  0  0  0  0  0  0  0  0  0  0
   19.8321   72.9403   -2.4992 C   0  0  0  0  0  0  0  0  0  0  0  0
   21.1432   72.5664   -1.9294 C   0  0  0  0  0  0  0  0  0  0  0  0
   22.0363   71.0420   -0.9358 H   0  0  0  0  0  0  0  0  0  0  0  0
   18.1889   70.6571   -6.5222 O   0  0  0  0  0  0  0  0  0  0  0  0
   19.1939   70.6993   -7.7878 P   0  0  2  0  0  0  0  0  0  0  0  0
   18.3033   71.3995   -8.9441 O   0  0  0  0  0  0  0  0  0  0  0  0
   19.7612   69.3624   -8.1686 O   0  0  0  0  0  0  0  0  0  0  0  0
   20.2982   71.8084   -7.3968 O   0  0  0  0  0  0  0  0  0  0  0  0
   21.5218   72.5587   -5.5130 O   0  0  0  0  0  0  0  0  0  0  0  0
   20.0127   76.1046   -7.0020 O   0  0  0  0  0  0  0  0  0  0  0  0
   18.3373   73.7141   -6.8880 O   0  0  0  0  0  0  0  0  0  0  0  0
   22.8083   75.4216   -7.4133 O   0  0  0  0  0  0  0  0  0  0  0  0
   20.5139   74.7698   -7.0730 C   0  0  2  0  0  0  0  0  0  0  0  0
   19.6097   73.8399   -6.2635 C   0  0  2  0  0  0  0  0  0  0  0  0
   21.9322   74.7660   -6.4983 C   0  0  1  0  0  0  0  0  0  0  0  0
   20.2361   72.4517   -6.1252 C   0  0  1  0  0  0  0  0  0  0  0  0
   22.4380   73.3441   -6.2725 C   0  0  1  0  0  0  0  0  0  0  0  0
   19.1121   76.1316   -7.3618 H   0  0  0  0  0  0  0  0  0  0  0  0
   17.9342   74.5914   -6.9792 H   0  0  0  0  0  0  0  0  0  0  0  0
   22.4975   76.3276   -7.5658 H   0  0  0  0  0  0  0  0  0  0  0  0
   23.7144   72.2320   -4.6491 O   0  0  0  0  0  0  0  0  0  0  0  0
   24.5128   74.2263   -5.4134 O   0  0  0  0  0  0  0  0  0  0  0  0
   23.6648   73.3466   -5.4198 C   0  0  0  0  0  0  0  0  0  0  0  0
  1  4  1  0
  1 24  1  0
  1  2  1  1
  1  3  2  0
 25 28  1  0
 25 24  1  0
 25 26  1  6
 25 27  2  0
  6 11  1  0
  6 12  1  0
 29 36  1  0
 29 37  1  0
  9  7  1  1
  7 13  1  0
 10  8  1  1
  8 14  1  0
  4  5  1  0
 36 28  1  6
 33 30  1  1
 30 38  1  0
 34 31  1  6
 31 39  1  0
 35 32  1  6
 32 40  1  0
 41 43  1  0
 15 19  2  0
 42 43  2  0
 16 22  2  0
 12 17  1  6
 17 19  1  0
 17 20  1  0
 18 19  1  0
 18 22  1  0
 18 23  1  0
  9 10  1  0
  9 11  1  0
 10 12  1  0
 11  5  1  6
 33 34  1  0
 33 35  1  0
 34 36  1  0
 35 37  1  0
 37 43  1  1
 20 21  2  0
 21 22  1  0
M  CHG  3   2  -1  26  -1  41  -1
M  END
>  <COMPND>  (155) 
    udp_gluA.pdb 

>  <AUTHOR>  (155) 
    GENERATED BY OPEN BABEL 3.1.1

>  <MASTER>  (155) 
        0    0    0    0    0    0    0    0   56    0   56    0

>  <minimizedAffinity>  (155) 
-7.16862

>  <CNNscore>  (155) 
0.3888446391

>  <CNNaffinity>  (155) 
4.0688633919

>  <CNN_VS>  (155) 
1.5821557045

>  <CNNaffinity_variance>  (155) 
0.3913736641

$$$$
156
     RDKit          3D

 43 45  0  0  0  0  0  0  0  0999 V2000
   23.1171   71.5020   -2.9547 P   0  0  2  0  0  0  0  0  0  0  0  0
   22.5772   72.7018   -3.8970 O   0  0  0  0  0  0  0  0  0  0  0  0
   24.2256   70.6816   -3.5463 O   0  0  0  0  0  0  0  0  0  0  0  0
   21.7768   70.6883   -2.5554 O   0  0  0  0  0  0  0  0  0  0  0  0
   20.9160   70.2533   -3.5919 C   0  0  0  0  0  0  0  0  0  0  0  0
   18.7366   71.0434   -4.2271 O   0  0  0  0  0  0  0  0  0  0  0  0
   17.6801   69.3861   -1.9624 O   0  0  0  0  0  0  0  0  0  0  0  0
   17.1518   67.8286   -4.1375 O   0  0  0  0  0  0  0  0  0  0  0  0
   18.7645   69.1156   -2.8510 C   0  0  1  0  0  0  0  0  0  0  0  0
   18.2386   68.7270   -4.2166 C   0  0  2  0  0  0  0  0  0  0  0  0
   19.4710   70.4320   -3.1444 C   0  0  1  0  0  0  0  0  0  0  0  0
   17.8428   70.0740   -4.7971 C   0  0  2  0  0  0  0  0  0  0  0  0
   17.2134   68.5596   -1.7603 H   0  0  0  0  0  0  0  0  0  0  0  0
   17.4550   66.9866   -3.7621 H   0  0  0  0  0  0  0  0  0  0  0  0
   15.9990   71.3405   -6.5212 O   0  0  0  0  0  0  0  0  0  0  0  0
   18.4081   70.1539  -10.2672 O   0  0  0  0  0  0  0  0  0  0  0  0
   17.9639   70.1113   -6.2271 N   0  0  0  0  0  0  0  0  0  0  0  0
   17.2001   70.7474   -8.3853 N   0  0  0  0  0  0  0  0  0  0  0  0
   16.9825   70.7740   -7.0015 C   0  0  0  0  0  0  0  0  0  0  0  0
   19.0454   69.4980   -6.8478 C   0  0  0  0  0  0  0  0  0  0  0  0
   19.2393   69.4812   -8.1680 C   0  0  0  0  0  0  0  0  0  0  0  0
   18.2596   70.1502   -9.0489 C   0  0  0  0  0  0  0  0  0  0  0  0
   16.5290   71.2006   -8.9454 H   0  0  0  0  0  0  0  0  0  0  0  0
   23.5021   72.2639   -1.5820 O   0  0  0  0  0  0  0  0  0  0  0  0
   22.5794   73.0344   -0.5010 P   0  0  2  0  0  0  0  0  0  0  0  0
   22.7824   72.1619    0.8473 O   0  0  0  0  0  0  0  0  0  0  0  0
   21.1475   73.2004   -0.9205 O   0  0  0  0  0  0  0  0  0  0  0  0
   23.3569   74.4180   -0.2115 O   0  0  0  0  0  0  0  0  0  0  0  0
   22.6967   76.5779    0.5013 O   0  0  0  0  0  0  0  0  0  0  0  0
   25.5480   77.4693   -2.3524 O   0  0  0  0  0  0  0  0  0  0  0  0
   23.5956   75.3475   -2.8221 O   0  0  0  0  0  0  0  0  0  0  0  0
   26.1837   77.7189    0.4733 O   0  0  0  0  0  0  0  0  0  0  0  0
   24.9360   76.6992   -1.3179 C   0  0  2  0  0  0  0  0  0  0  0  0
   23.5303   76.2837   -1.7525 C   0  0  2  0  0  0  0  0  0  0  0  0
   24.8692   77.5667   -0.0589 C   0  0  1  0  0  0  0  0  0  0  0  0
   22.7605   75.6575   -0.5889 C   0  0  1  0  0  0  0  0  0  0  0  0
   23.9814   76.9327    1.0080 C   0  0  1  0  0  0  0  0  0  0  0  0
   25.6012   76.9384   -3.1627 H   0  0  0  0  0  0  0  0  0  0  0  0
   24.0831   75.7381   -3.5638 H   0  0  0  0  0  0  0  0  0  0  0  0
   26.7590   78.1213   -0.1961 H   0  0  0  0  0  0  0  0  0  0  0  0
   24.0890   79.1580    1.7415 O   0  0  0  0  0  0  0  0  0  0  0  0
   23.0812   77.6536    3.1273 O   0  0  0  0  0  0  0  0  0  0  0  0
   23.6574   77.9186    2.0829 C   0  0  0  0  0  0  0  0  0  0  0  0
  1  4  1  0
  1 24  1  0
  1  2  1  6
  1  3  2  0
 25 28  1  0
 25 24  1  0
 25 26  1  1
 25 27  2  0
  6 11  1  0
  6 12  1  0
 29 36  1  0
 29 37  1  0
  9  7  1  1
  7 13  1  0
 10  8  1  1
  8 14  1  0
  4  5  1  0
 36 28  1  1
 33 30  1  6
 30 38  1  0
 34 31  1  6
 31 39  1  0
 35 32  1  1
 32 40  1  0
 41 43  1  0
 15 19  2  0
 42 43  2  0
 16 22  2  0
 12 17  1  6
 17 19  1  0
 17 20  1  0
 18 19  1  0
 18 22  1  0
 18 23  1  0
  9 10  1  0
  9 11  1  0
 10 12  1  0
 11  5  1  6
 33 34  1  0
 33 35  1  0
 34 36  1  0
 35 37  1  0
 37 43  1  1
 20 21  2  0
 21 22  1  0
M  CHG  3   2  -1  26  -1  41  -1
M  END
>  <COMPND>  (156) 
    udp_gluA.pdb 

>  <AUTHOR>  (156) 
    GENERATED BY OPEN BABEL 3.1.1

>  <MASTER>  (156) 
        0    0    0    0    0    0    0    0   56    0   56    0

>  <minimizedAffinity>  (156) 
-7.65174

>  <CNNscore>  (156) 
0.3857820630

>  <CNNaffinity>  (156) 
4.3643522263

>  <CNN_VS>  (156) 
1.6836887598

>  <CNNaffinity_variance>  (156) 
0.0476365648

$$$$
157
     RDKit          3D

 43 45  0  0  0  0  0  0  0  0999 V2000
   20.4784   70.1055   -2.3549 P   0  0  2  0  0  0  0  0  0  0  0  0
   19.8212   68.9017   -3.2139 O   0  0  0  0  0  0  0  0  0  0  0  0
   20.5677   69.8547   -0.8781 O   0  0  0  0  0  0  0  0  0  0  0  0
   19.6258   71.4080   -2.7960 O   0  0  0  0  0  0  0  0  0  0  0  0
   18.3333   71.5879   -2.2466 C   0  0  0  0  0  0  0  0  0  0  0  0
   18.2634   72.9188   -4.2470 O   0  0  0  0  0  0  0  0  0  0  0  0
   15.5451   73.8029   -3.3411 O   0  0  0  0  0  0  0  0  0  0  0  0
   14.9620   71.9195   -5.2250 O   0  0  0  0  0  0  0  0  0  0  0  0
   16.1722   72.5274   -3.2056 C   0  0  1  0  0  0  0  0  0  0  0  0
   16.1908   71.8083   -4.5378 C   0  0  2  0  0  0  0  0  0  0  0  0
   17.6549   72.7580   -2.9473 C   0  0  1  0  0  0  0  0  0  0  0  0
   17.3296   72.5092   -5.2587 C   0  0  2  0  0  0  0  0  0  0  0  0
   14.5967   73.6813   -3.5068 H   0  0  0  0  0  0  0  0  0  0  0  0
   14.2696   71.4573   -4.7261 H   0  0  0  0  0  0  0  0  0  0  0  0
   18.3381   73.3464   -7.7604 O   0  0  0  0  0  0  0  0  0  0  0  0
   19.8829   69.1199   -8.7573 O   0  0  0  0  0  0  0  0  0  0  0  0
   17.9998   71.6483   -6.1918 N   0  0  0  0  0  0  0  0  0  0  0  0
   19.1056   71.2403   -8.2550 N   0  0  0  0  0  0  0  0  0  0  0  0
   18.4680   72.1686   -7.4215 C   0  0  0  0  0  0  0  0  0  0  0  0
   18.1888   70.3063   -5.8849 C   0  0  0  0  0  0  0  0  0  0  0  0
   18.7986   69.4337   -6.6895 C   0  0  0  0  0  0  0  0  0  0  0  0
   19.3167   69.8961   -7.9938 C   0  0  0  0  0  0  0  0  0  0  0  0
   19.4384   71.5787   -9.1176 H   0  0  0  0  0  0  0  0  0  0  0  0
   21.9013   70.3381   -3.0857 O   0  0  0  0  0  0  0  0  0  0  0  0
   23.1487   71.2918   -2.7011 P   0  0  2  0  0  0  0  0  0  0  0  0
   23.6792   71.8058   -4.1415 O   0  0  0  0  0  0  0  0  0  0  0  0
   24.1968   70.6249   -1.8581 O   0  0  0  0  0  0  0  0  0  0  0  0
   22.4758   72.5938   -2.0268 O   0  0  0  0  0  0  0  0  0  0  0  0
   23.8833   74.0007   -0.7428 O   0  0  0  0  0  0  0  0  0  0  0  0
   20.1319   75.3539    0.3361 O   0  0  0  0  0  0  0  0  0  0  0  0
   20.6547   72.4917    0.0730 O   0  0  0  0  0  0  0  0  0  0  0  0
   21.7708   76.9041   -1.4975 O   0  0  0  0  0  0  0  0  0  0  0  0
   21.1148   74.7948   -0.5354 C   0  0  2  0  0  0  0  0  0  0  0  0
   21.6584   73.5003    0.0698 C   0  0  2  0  0  0  0  0  0  0  0  0
   22.2397   75.8195   -0.6987 C   0  0  1  0  0  0  0  0  0  0  0  0
   22.8694   72.9954   -0.7158 C   0  0  1  0  0  0  0  0  0  0  0  0
   23.4592   75.2042   -1.3790 C   0  0  1  0  0  0  0  0  0  0  0  0
   19.4069   74.7202    0.4548 H   0  0  0  0  0  0  0  0  0  0  0  0
   19.8831   72.8055    0.5696 H   0  0  0  0  0  0  0  0  0  0  0  0
   20.9945   77.3044   -1.0757 H   0  0  0  0  0  0  0  0  0  0  0  0
   24.8349   76.8276   -2.3656 O   0  0  0  0  0  0  0  0  0  0  0  0
   25.3637   76.1628   -0.2496 O   0  0  0  0  0  0  0  0  0  0  0  0
   24.6504   76.0952   -1.2394 C   0  0  0  0  0  0  0  0  0  0  0  0
  1  4  1  0
  1 24  1  0
  1  2  1  6
  1  3  2  0
 25 28  1  0
 25 24  1  0
 25 26  1  6
 25 27  2  0
  6 11  1  0
  6 12  1  0
 29 36  1  0
 29 37  1  0
  9  7  1  6
  7 13  1  0
 10  8  1  6
  8 14  1  0
  4  5  1  0
 36 28  1  6
 33 30  1  1
 30 38  1  0
 34 31  1  6
 31 39  1  0
 35 32  1  6
 32 40  1  0
 41 43  1  0
 15 19  2  0
 42 43  2  0
 16 22  2  0
 12 17  1  6
 17 19  1  0
 17 20  1  0
 18 19  1  0
 18 22  1  0
 18 23  1  0
  9 10  1  0
  9 11  1  0
 10 12  1  0
 11  5  1  6
 33 34  1  0
 33 35  1  0
 34 36  1  0
 35 37  1  0
 37 43  1  1
 20 21  2  0
 21 22  1  0
M  CHG  3   2  -1  26  -1  41  -1
M  END
>  <COMPND>  (157) 
    udp_gluA.pdb 

>  <AUTHOR>  (157) 
    GENERATED BY OPEN BABEL 3.1.1

>  <MASTER>  (157) 
        0    0    0    0    0    0    0    0   56    0   56    0

>  <minimizedAffinity>  (157) 
-6.78335

>  <CNNscore>  (157) 
0.3856753409

>  <CNNaffinity>  (157) 
4.1574959755

>  <CNN_VS>  (157) 
1.6034436226

>  <CNNaffinity_variance>  (157) 
0.1074988693

$$$$
158
     RDKit          3D

 43 45  0  0  0  0  0  0  0  0999 V2000
   18.3589   69.7866   -2.1593 P   0  0  2  0  0  0  0  0  0  0  0  0
   17.2533   68.7042   -1.6848 O   0  0  0  0  0  0  0  0  0  0  0  0
   19.6188   69.1992   -2.7244 O   0  0  0  0  0  0  0  0  0  0  0  0
   18.5471   70.7417   -0.8669 O   0  0  0  0  0  0  0  0  0  0  0  0
   17.8177   71.9538   -0.8100 C   0  0  0  0  0  0  0  0  0  0  0  0
   19.8964   72.4758    0.2783 O   0  0  0  0  0  0  0  0  0  0  0  0
   18.7709   75.2228    0.7011 O   0  0  0  0  0  0  0  0  0  0  0  0
   20.4268   75.5797   -1.4359 O   0  0  0  0  0  0  0  0  0  0  0  0
   18.6054   74.3393   -0.4082 C   0  0  1  0  0  0  0  0  0  0  0  0
   19.8713   74.2965   -1.2376 C   0  0  2  0  0  0  0  0  0  0  0  0
   18.5294   72.9174    0.1309 C   0  0  1  0  0  0  0  0  0  0  0  0
   20.7649   73.3951   -0.4028 C   0  0  2  0  0  0  0  0  0  0  0  0
   18.8220   76.1376    0.3815 H   0  0  0  0  0  0  0  0  0  0  0  0
   19.8207   76.1150   -1.9727 H   0  0  0  0  0  0  0  0  0  0  0  0
   23.1812   72.2978    0.5636 O   0  0  0  0  0  0  0  0  0  0  0  0
   24.2579   70.5619   -3.5682 O   0  0  0  0  0  0  0  0  0  0  0  0
   21.6954   72.6517   -1.2044 N   0  0  0  0  0  0  0  0  0  0  0  0
   23.7156   71.4352   -1.4954 N   0  0  0  0  0  0  0  0  0  0  0  0
   22.8804   72.1436   -0.6216 C   0  0  0  0  0  0  0  0  0  0  0  0
   21.4298   72.4312   -2.5504 C   0  0  0  0  0  0  0  0  0  0  0  0
   22.2355   71.7540   -3.3707 C   0  0  0  0  0  0  0  0  0  0  0  0
   23.4946   71.1905   -2.8411 C   0  0  0  0  0  0  0  0  0  0  0  0
   24.5477   71.0735   -1.1131 H   0  0  0  0  0  0  0  0  0  0  0  0
   17.5328   70.7229   -3.1859 O   0  0  0  0  0  0  0  0  0  0  0  0
   16.3985   70.3570   -4.2781 P   0  0  2  0  0  0  0  0  0  0  0  0
   15.1450   71.2793   -3.8326 O   0  0  0  0  0  0  0  0  0  0  0  0
   16.0852   68.8918   -4.3734 O   0  0  0  0  0  0  0  0  0  0  0  0
   16.9239   71.0200   -5.6517 O   0  0  0  0  0  0  0  0  0  0  0  0
   18.7361   70.3384   -7.0157 O   0  0  0  0  0  0  0  0  0  0  0  0
   18.6561   74.4123   -7.6979 O   0  0  0  0  0  0  0  0  0  0  0  0
   18.2870   73.3551   -4.9996 O   0  0  0  0  0  0  0  0  0  0  0  0
   17.6317   72.5762   -9.7055 O   0  0  0  0  0  0  0  0  0  0  0  0
   18.1032   73.1284   -7.4081 C   0  0  2  0  0  0  0  0  0  0  0  0
   18.7171   72.5863   -6.1171 C   0  0  2  0  0  0  0  0  0  0  0  0
   18.4244   72.1995   -8.5812 C   0  0  1  0  0  0  0  0  0  0  0  0
   18.3252   71.1246   -5.8966 C   0  0  1  0  0  0  0  0  0  0  0  0
   18.1229   70.7436   -8.2376 C   0  0  1  0  0  0  0  0  0  0  0  0
   18.4645   75.0197   -6.9660 H   0  0  0  0  0  0  0  0  0  0  0  0
   18.5322   74.2838   -5.1330 H   0  0  0  0  0  0  0  0  0  0  0  0
   17.8140   73.5010   -9.9344 H   0  0  0  0  0  0  0  0  0  0  0  0
   19.5885   68.9571   -8.6401 O   0  0  0  0  0  0  0  0  0  0  0  0
   18.5064   69.8409  -10.4420 O   0  0  0  0  0  0  0  0  0  0  0  0
   18.7366   69.8235   -9.2422 C   0  0  0  0  0  0  0  0  0  0  0  0
  1  4  1  0
  1 24  1  0
  1  2  1  1
  1  3  2  0
 25 28  1  0
 25 24  1  0
 25 26  1  1
 25 27  2  0
  6 11  1  0
  6 12  1  0
 29 36  1  0
 29 37  1  0
  9  7  1  1
  7 13  1  0
 10  8  1  1
  8 14  1  0
  4  5  1  0
 36 28  1  6
 33 30  1  6
 30 38  1  0
 34 31  1  1
 31 39  1  0
 35 32  1  6
 32 40  1  0
 41 43  1  0
 15 19  2  0
 42 43  2  0
 16 22  2  0
 12 17  1  6
 17 19  1  0
 17 20  1  0
 18 19  1  0
 18 22  1  0
 18 23  1  0
  9 10  1  0
  9 11  1  0
 10 12  1  0
 11  5  1  6
 33 34  1  0
 33 35  1  0
 34 36  1  0
 35 37  1  0
 37 43  1  6
 20 21  2  0
 21 22  1  0
M  CHG  3   2  -1  26  -1  41  -1
M  END
>  <COMPND>  (158) 
    udp_gluA.pdb 

>  <AUTHOR>  (158) 
    GENERATED BY OPEN BABEL 3.1.1

>  <MASTER>  (158) 
        0    0    0    0    0    0    0    0   56    0   56    0

>  <minimizedAffinity>  (158) 
-7.82896

>  <CNNscore>  (158) 
0.3806635439

>  <CNNaffinity>  (158) 
4.0345258713

>  <CNN_VS>  (158) 
1.5357968807

>  <CNNaffinity_variance>  (158) 
0.4134266973

$$$$
159
     RDKit          3D

 43 45  0  0  0  0  0  0  0  0999 V2000
   23.0660   71.4047   -2.9657 P   0  0  2  0  0  0  0  0  0  0  0  0
   22.5630   72.6571   -3.8586 O   0  0  0  0  0  0  0  0  0  0  0  0
   24.2106   70.6295   -3.5495 O   0  0  0  0  0  0  0  0  0  0  0  0
   21.7150   70.5595   -2.6860 O   0  0  0  0  0  0  0  0  0  0  0  0
   20.8844   70.2295   -3.7840 C   0  0  0  0  0  0  0  0  0  0  0  0
   18.7572   71.0931   -4.4959 O   0  0  0  0  0  0  0  0  0  0  0  0
   17.5627   69.4582   -2.2843 O   0  0  0  0  0  0  0  0  0  0  0  0
   17.0679   67.9309   -4.4884 O   0  0  0  0  0  0  0  0  0  0  0  0
   18.6708   69.1578   -3.1330 C   0  0  1  0  0  0  0  0  0  0  0  0
   18.1852   68.7941   -4.5201 C   0  0  2  0  0  0  0  0  0  0  0  0
   19.4299   70.4523   -3.3904 C   0  0  1  0  0  0  0  0  0  0  0  0
   17.8552   70.1564   -5.1060 C   0  0  2  0  0  0  0  0  0  0  0  0
   17.0623   68.6462   -2.1056 H   0  0  0  0  0  0  0  0  0  0  0  0
   17.3294   67.0773   -4.1076 H   0  0  0  0  0  0  0  0  0  0  0  0
   16.0023   71.2907   -6.9105 O   0  0  0  0  0  0  0  0  0  0  0  0
   18.6367   70.2589  -10.5490 O   0  0  0  0  0  0  0  0  0  0  0  0
   18.0318   70.1977   -6.5301 N   0  0  0  0  0  0  0  0  0  0  0  0
   17.3157   70.7748   -8.7210 N   0  0  0  0  0  0  0  0  0  0  0  0
   17.0405   70.7906   -7.3473 C   0  0  0  0  0  0  0  0  0  0  0  0
   19.1766   69.6571   -7.1030 C   0  0  0  0  0  0  0  0  0  0  0  0
   19.4249   69.6497   -8.4141 C   0  0  0  0  0  0  0  0  0  0  0  0
   18.4392   70.2486   -9.3377 C   0  0  0  0  0  0  0  0  0  0  0  0
   16.6391   71.1801   -9.3104 H   0  0  0  0  0  0  0  0  0  0  0  0
   23.3742   72.0826   -1.5310 O   0  0  0  0  0  0  0  0  0  0  0  0
   22.7668   73.4068   -0.8303 P   0  0  2  0  0  0  0  0  0  0  0  0
   23.1416   74.5838   -1.8764 O   0  0  0  0  0  0  0  0  0  0  0  0
   23.2575   73.6435    0.5687 O   0  0  0  0  0  0  0  0  0  0  0  0
   21.1673   73.2413   -0.9597 O   0  0  0  0  0  0  0  0  0  0  0  0
   19.9687   74.4884    0.6581 O   0  0  0  0  0  0  0  0  0  0  0  0
   16.9574   72.2638   -1.0887 O   0  0  0  0  0  0  0  0  0  0  0  0
   19.5381   71.0395   -0.4760 O   0  0  0  0  0  0  0  0  0  0  0  0
   17.2473   75.0844   -1.7296 O   0  0  0  0  0  0  0  0  0  0  0  0
   18.1934   72.9769   -1.0454 C   0  0  2  0  0  0  0  0  0  0  0  0
   19.1253   72.3241   -0.0242 C   0  0  2  0  0  0  0  0  0  0  0  0
   17.8916   74.4222   -0.6430 C   0  0  1  0  0  0  0  0  0  0  0  0
   20.3635   73.1886    0.2175 C   0  0  1  0  0  0  0  0  0  0  0  0
   19.1687   75.1823   -0.2968 C   0  0  1  0  0  0  0  0  0  0  0  0
   17.1243   71.3423   -1.3424 H   0  0  0  0  0  0  0  0  0  0  0  0
   18.7574   70.4857   -0.6317 H   0  0  0  0  0  0  0  0  0  0  0  0
   16.4330   74.6105   -1.9601 H   0  0  0  0  0  0  0  0  0  0  0  0
   19.4351   76.5022    1.6237 O   0  0  0  0  0  0  0  0  0  0  0  0
   18.1610   77.3617   -0.0606 O   0  0  0  0  0  0  0  0  0  0  0  0
   18.8503   76.4645    0.4008 C   0  0  0  0  0  0  0  0  0  0  0  0
  1  4  1  0
  1 24  1  0
  1  2  1  6
  1  3  2  0
 25 28  1  0
 25 24  1  0
 25 26  1  6
 25 27  2  0
  6 11  1  0
  6 12  1  0
 29 36  1  0
 29 37  1  0
  9  7  1  1
  7 13  1  0
 10  8  1  1
  8 14  1  0
  4  5  1  0
 36 28  1  6
 33 30  1  1
 30 38  1  0
 34 31  1  6
 31 39  1  0
 35 32  1  6
 32 40  1  0
 41 43  1  0
 15 19  2  0
 42 43  2  0
 16 22  2  0
 12 17  1  6
 17 19  1  0
 17 20  1  0
 18 19  1  0
 18 22  1  0
 18 23  1  0
  9 10  1  0
  9 11  1  0
 10 12  1  0
 11  5  1  6
 33 34  1  0
 33 35  1  0
 34 36  1  0
 35 37  1  0
 37 43  1  1
 20 21  2  0
 21 22  1  0
M  CHG  3   2  -1  26  -1  41  -1
M  END
>  <COMPND>  (159) 
    udp_gluA.pdb 

>  <AUTHOR>  (159) 
    GENERATED BY OPEN BABEL 3.1.1

>  <MASTER>  (159) 
        0    0    0    0    0    0    0    0   56    0   56    0

>  <minimizedAffinity>  (159) 
-7.72197

>  <CNNscore>  (159) 
0.3588246405

>  <CNNaffinity>  (159) 
4.2721390724

>  <CNN_VS>  (159) 
1.5329487324

>  <CNNaffinity_variance>  (159) 
0.1737945974

$$$$
160
     RDKit          3D

 43 45  0  0  0  0  0  0  0  0999 V2000
   17.4085   70.0494   -4.0668 P   0  0  2  0  0  0  0  0  0  0  0  0
   18.4154   68.9456   -4.6888 O   0  0  0  0  0  0  0  0  0  0  0  0
   16.2807   69.4895   -3.2505 O   0  0  0  0  0  0  0  0  0  0  0  0
   16.9752   70.9434   -5.3439 O   0  0  0  0  0  0  0  0  0  0  0  0
   16.3178   70.3059   -6.4237 C   0  0  0  0  0  0  0  0  0  0  0  0
   17.0182   72.3878   -7.3999 O   0  0  0  0  0  0  0  0  0  0  0  0
   17.8533   70.7743   -9.7854 O   0  0  0  0  0  0  0  0  0  0  0  0
   20.2193   71.2065   -8.5005 O   0  0  0  0  0  0  0  0  0  0  0  0
   17.9151   70.4366   -8.3995 C   0  0  1  0  0  0  0  0  0  0  0  0
   19.0390   71.1944   -7.7251 C   0  0  2  0  0  0  0  0  0  0  0  0
   16.6843   71.0195   -7.7186 C   0  0  1  0  0  0  0  0  0  0  0  0
   18.4328   72.5778   -7.5613 C   0  0  2  0  0  0  0  0  0  0  0  0
   18.6296   70.4125  -10.2417 H   0  0  0  0  0  0  0  0  0  0  0  0
   20.5663   70.3031   -8.5752 H   0  0  0  0  0  0  0  0  0  0  0  0
   20.3972   71.5358   -5.8200 O   0  0  0  0  0  0  0  0  0  0  0  0
   20.3245   75.3145   -3.1819 O   0  0  0  0  0  0  0  0  0  0  0  0
   18.9454   73.2681   -6.4117 N   0  0  0  0  0  0  0  0  0  0  0  0
   20.3584   73.4184   -4.5072 N   0  0  0  0  0  0  0  0  0  0  0  0
   19.9312   72.6557   -5.6021 C   0  0  0  0  0  0  0  0  0  0  0  0
   18.4739   74.5368   -6.0971 C   0  0  0  0  0  0  0  0  0  0  0  0
   18.8907   75.2514   -5.0501 C   0  0  0  0  0  0  0  0  0  0  0  0
   19.9187   74.6837   -4.1533 C   0  0  0  0  0  0  0  0  0  0  0  0
   21.0429   73.0121   -3.9277 H   0  0  0  0  0  0  0  0  0  0  0  0
   18.4034   71.0321   -3.2561 O   0  0  0  0  0  0  0  0  0  0  0  0
   18.5444   71.3294   -1.6732 P   0  0  2  0  0  0  0  0  0  0  0  0
   18.9877   69.8959   -1.0658 O   0  0  0  0  0  0  0  0  0  0  0  0
   17.3126   71.9134   -1.0442 O   0  0  0  0  0  0  0  0  0  0  0  0
   19.8624   72.2508   -1.5457 O   0  0  0  0  0  0  0  0  0  0  0  0
   22.0049   71.2997   -1.8839 O   0  0  0  0  0  0  0  0  0  0  0  0
   22.9440   74.8088    0.0839 O   0  0  0  0  0  0  0  0  0  0  0  0
   20.6683   73.1918    0.9445 O   0  0  0  0  0  0  0  0  0  0  0  0
   23.3855   74.5788   -2.7802 O   0  0  0  0  0  0  0  0  0  0  0  0
   22.1880   73.9627   -0.7824 C   0  0  2  0  0  0  0  0  0  0  0  0
   21.6524   72.7686    0.0080 C   0  0  2  0  0  0  0  0  0  0  0  0
   23.1134   73.4865   -1.9043 C   0  0  1  0  0  0  0  0  0  0  0  0
   21.0354   71.7266   -0.9261 C   0  0  1  0  0  0  0  0  0  0  0  0
   22.4753   72.3604   -2.7125 C   0  0  1  0  0  0  0  0  0  0  0  0
   22.3764   75.1237    0.8049 H   0  0  0  0  0  0  0  0  0  0  0  0
   21.0528   73.8534    1.5403 H   0  0  0  0  0  0  0  0  0  0  0  0
   23.7918   75.3025   -2.2781 H   0  0  0  0  0  0  0  0  0  0  0  0
   23.6156   72.3321   -4.7621 O   0  0  0  0  0  0  0  0  0  0  0  0
   24.1277   70.6910   -3.2642 O   0  0  0  0  0  0  0  0  0  0  0  0
   23.4910   71.6861   -3.5763 C   0  0  0  0  0  0  0  0  0  0  0  0
  1  4  1  0
  1 24  1  0
  1  2  1  6
  1  3  2  0
 25 28  1  0
 25 24  1  0
 25 26  1  1
 25 27  2  0
  6 11  1  0
  6 12  1  0
 29 36  1  0
 29 37  1  0
  9  7  1  6
  7 13  1  0
 10  8  1  6
  8 14  1  0
  4  5  1  0
 36 28  1  6
 33 30  1  1
 30 38  1  0
 34 31  1  1
 31 39  1  0
 35 32  1  6
 32 40  1  0
 41 43  1  0
 15 19  2  0
 42 43  2  0
 16 22  2  0
 12 17  1  1
 17 19  1  0
 17 20  1  0
 18 19  1  0
 18 22  1  0
 18 23  1  0
  9 10  1  0
  9 11  1  0
 10 12  1  0
 11  5  1  1
 33 34  1  0
 33 35  1  0
 34 36  1  0
 35 37  1  0
 37 43  1  6
 20 21  2  0
 21 22  1  0
M  CHG  3   2  -1  26  -1  41  -1
M  END
>  <COMPND>  (160) 
    udp_gluA.pdb 

>  <AUTHOR>  (160) 
    GENERATED BY OPEN BABEL 3.1.1

>  <MASTER>  (160) 
        0    0    0    0    0    0    0    0   56    0   56    0

>  <minimizedAffinity>  (160) 
-7.45346

>  <CNNscore>  (160) 
0.3253604770

>  <CNNaffinity>  (160) 
3.9646854401

>  <CNN_VS>  (160) 
1.2899519205

>  <CNNaffinity_variance>  (160) 
0.3388111591

$$$$
161
     RDKit          3D

 43 45  0  0  0  0  0  0  0  0999 V2000
   20.4320   71.3515   -1.6129 P   0  0  2  0  0  0  0  0  0  0  0  0
   19.3491   71.2611   -0.4137 O   0  0  0  0  0  0  0  0  0  0  0  0
   20.1317   72.3822   -2.6613 O   0  0  0  0  0  0  0  0  0  0  0  0
   20.5550   69.8271   -2.1411 O   0  0  0  0  0  0  0  0  0  0  0  0
   19.8794   69.4677   -3.3323 C   0  0  0  0  0  0  0  0  0  0  0  0
   17.9049   70.5020   -4.2319 O   0  0  0  0  0  0  0  0  0  0  0  0
   16.3509   68.6182   -2.4918 O   0  0  0  0  0  0  0  0  0  0  0  0
   16.1888   67.4356   -4.9436 O   0  0  0  0  0  0  0  0  0  0  0  0
   17.5749   68.3988   -3.1934 C   0  0  1  0  0  0  0  0  0  0  0  0
   17.3097   68.2522   -4.6768 C   0  0  2  0  0  0  0  0  0  0  0  0
   18.3843   69.6873   -3.1402 C   0  0  1  0  0  0  0  0  0  0  0  0
   17.0970   69.6948   -5.1032 C   0  0  2  0  0  0  0  0  0  0  0  0
   15.8165   67.8084   -2.5121 H   0  0  0  0  0  0  0  0  0  0  0  0
   16.3740   66.5278   -4.6545 H   0  0  0  0  0  0  0  0  0  0  0  0
   15.6593   71.2909   -6.9367 O   0  0  0  0  0  0  0  0  0  0  0  0
   18.7276   70.5247  -10.2897 O   0  0  0  0  0  0  0  0  0  0  0  0
   17.4975   69.9294   -6.4616 N   0  0  0  0  0  0  0  0  0  0  0  0
   17.1883   70.9070   -8.6052 N   0  0  0  0  0  0  0  0  0  0  0  0
   16.7039   70.7472   -7.3003 C   0  0  0  0  0  0  0  0  0  0  0  0
   18.6646   69.3543   -6.9498 C   0  0  0  0  0  0  0  0  0  0  0  0
   19.1136   69.5159   -8.1960 C   0  0  0  0  0  0  0  0  0  0  0  0
   18.3426   70.3550   -9.1367 C   0  0  0  0  0  0  0  0  0  0  0  0
   16.6517   71.4705   -9.2083 H   0  0  0  0  0  0  0  0  0  0  0  0
   21.8261   71.5772   -0.8266 O   0  0  0  0  0  0  0  0  0  0  0  0
   23.3512   71.6218   -1.3614 P   0  0  2  0  0  0  0  0  0  0  0  0
   23.1812   71.5560   -2.9698 O   0  0  0  0  0  0  0  0  0  0  0  0
   24.2360   70.5526   -0.7888 O   0  0  0  0  0  0  0  0  0  0  0  0
   23.8448   73.1289   -1.0655 O   0  0  0  0  0  0  0  0  0  0  0  0
   23.3374   74.8358    0.4960 O   0  0  0  0  0  0  0  0  0  0  0  0
   23.5184   76.9603   -3.0426 O   0  0  0  0  0  0  0  0  0  0  0  0
   22.2017   74.3542   -2.9456 O   0  0  0  0  0  0  0  0  0  0  0  0
   25.7060   77.1147   -1.1344 O   0  0  0  0  0  0  0  0  0  0  0  0
   23.8644   75.9204   -2.1278 C   0  0  2  0  0  0  0  0  0  0  0  0
   22.6222   75.0904   -1.8028 C   0  0  2  0  0  0  0  0  0  0  0  0
   24.4163   76.5720   -0.8579 C   0  0  1  0  0  0  0  0  0  0  0  0
   22.8995   74.1161   -0.6571 C   0  0  1  0  0  0  0  0  0  0  0  0
   24.5461   75.5596    0.2765 C   0  0  1  0  0  0  0  0  0  0  0  0
   23.1651   76.5699   -3.8575 H   0  0  0  0  0  0  0  0  0  0  0  0
   22.0243   74.9662   -3.6766 H   0  0  0  0  0  0  0  0  0  0  0  0
   25.6374   77.7606   -1.8548 H   0  0  0  0  0  0  0  0  0  0  0  0
   26.0742   76.2103    1.9327 O   0  0  0  0  0  0  0  0  0  0  0  0
   23.8905   76.7855    2.2485 O   0  0  0  0  0  0  0  0  0  0  0  0
   24.7648   76.2515    1.5825 C   0  0  0  0  0  0  0  0  0  0  0  0
  1  4  1  0
  1 24  1  0
  1  2  1  1
  1  3  2  0
 25 28  1  0
 25 24  1  0
 25 26  1  6
 25 27  2  0
  6 11  1  0
  6 12  1  0
 29 36  1  0
 29 37  1  0
  9  7  1  1
  7 13  1  0
 10  8  1  1
  8 14  1  0
  4  5  1  0
 36 28  1  6
 33 30  1  6
 30 38  1  0
 34 31  1  6
 31 39  1  0
 35 32  1  6
 32 40  1  0
 41 43  1  0
 15 19  2  0
 42 43  2  0
 16 22  2  0
 12 17  1  6
 17 19  1  0
 17 20  1  0
 18 19  1  0
 18 22  1  0
 18 23  1  0
  9 10  1  0
  9 11  1  0
 10 12  1  0
 11  5  1  6
 33 34  1  0
 33 35  1  0
 34 36  1  0
 35 37  1  0
 37 43  1  1
 20 21  2  0
 21 22  1  0
M  CHG  3   2  -1  26  -1  41  -1
M  END
>  <COMPND>  (161) 
    udp_gluA.pdb 

>  <AUTHOR>  (161) 
    GENERATED BY OPEN BABEL 3.1.1

>  <MASTER>  (161) 
        0    0    0    0    0    0    0    0   56    0   56    0

>  <minimizedAffinity>  (161) 
-7.91212

>  <CNNscore>  (161) 
0.6902869344

>  <CNNaffinity>  (161) 
4.6685242653

>  <CNN_VS>  (161) 
3.2226212025

>  <CNNaffinity_variance>  (161) 
0.0150098456

$$$$
162
     RDKit          3D

 43 45  0  0  0  0  0  0  0  0999 V2000
   22.5080   73.3253   -6.4205 P   0  0  2  0  0  0  0  0  0  0  0  0
   22.7385   74.2234   -7.7469 O   0  0  0  0  0  0  0  0  0  0  0  0
   23.7622   72.9251   -5.7005 O   0  0  0  0  0  0  0  0  0  0  0  0
   21.5733   72.1081   -6.9332 O   0  0  0  0  0  0  0  0  0  0  0  0
   20.2401   72.3937   -7.3145 C   0  0  0  0  0  0  0  0  0  0  0  0
   19.7034   70.0626   -7.0782 O   0  0  0  0  0  0  0  0  0  0  0  0
   17.8851   70.4336   -9.4335 O   0  0  0  0  0  0  0  0  0  0  0  0
   16.1522   70.4871   -7.3287 O   0  0  0  0  0  0  0  0  0  0  0  0
   18.1794   71.3372   -8.3680 C   0  0  1  0  0  0  0  0  0  0  0  0
   17.4848   70.8938   -7.0978 C   0  0  2  0  0  0  0  0  0  0  0  0
   19.6481   71.1705   -8.0028 C   0  0  1  0  0  0  0  0  0  0  0  0
   18.3730   69.7515   -6.6349 C   0  0  2  0  0  0  0  0  0  0  0  0
   16.9518   70.5218   -9.6843 H   0  0  0  0  0  0  0  0  0  0  0  0
   15.6275   71.2495   -7.6210 H   0  0  0  0  0  0  0  0  0  0  0  0
   16.2661   68.6105   -5.1398 O   0  0  0  0  0  0  0  0  0  0  0  0
   18.5033   69.2441   -1.1602 O   0  0  0  0  0  0  0  0  0  0  0  0
   18.3787   69.6059   -5.2068 N   0  0  0  0  0  0  0  0  0  0  0  0
   17.3819   68.9281   -3.1590 N   0  0  0  0  0  0  0  0  0  0  0  0
   17.2696   69.0193   -4.5527 C   0  0  0  0  0  0  0  0  0  0  0  0
   19.4740   70.0397   -4.4698 C   0  0  0  0  0  0  0  0  0  0  0  0
   19.5666   69.9460   -3.1418 C   0  0  0  0  0  0  0  0  0  0  0  0
   18.4503   69.3460   -2.3821 C   0  0  0  0  0  0  0  0  0  0  0  0
   16.6212   68.5251   -2.6814 H   0  0  0  0  0  0  0  0  0  0  0  0
   21.4874   74.2239   -5.5467 O   0  0  0  0  0  0  0  0  0  0  0  0
   21.7628   75.3531   -4.4229 P   0  0  2  0  0  0  0  0  0  0  0  0
   20.3329   76.1003   -4.2912 O   0  0  0  0  0  0  0  0  0  0  0  0
   22.9116   76.2672   -4.7370 O   0  0  0  0  0  0  0  0  0  0  0  0
   21.9201   74.5292   -3.0449 O   0  0  0  0  0  0  0  0  0  0  0  0
   22.1644   72.1915   -2.7539 O   0  0  0  0  0  0  0  0  0  0  0  0
   20.2490   73.2781    0.7416 O   0  0  0  0  0  0  0  0  0  0  0  0
   19.4271   74.4262   -1.8159 O   0  0  0  0  0  0  0  0  0  0  0  0
   23.0906   72.6654    0.7646 O   0  0  0  0  0  0  0  0  0  0  0  0
   21.1200   73.4534   -0.3758 C   0  0  2  0  0  0  0  0  0  0  0  0
   20.3202   73.3278   -1.6728 C   0  0  2  0  0  0  0  0  0  0  0  0
   22.1990   72.3703   -0.3089 C   0  0  1  0  0  0  0  0  0  0  0  0
   21.2497   73.2802   -2.8863 C   0  0  1  0  0  0  0  0  0  0  0  0
   23.0015   72.3025   -1.6049 C   0  0  1  0  0  0  0  0  0  0  0  0
   19.5548   73.9556    0.7201 H   0  0  0  0  0  0  0  0  0  0  0  0
   18.8345   74.4627   -1.0492 H   0  0  0  0  0  0  0  0  0  0  0  0
   22.5923   72.7115    1.5955 H   0  0  0  0  0  0  0  0  0  0  0  0
   23.9555   70.6273   -2.9410 O   0  0  0  0  0  0  0  0  0  0  0  0
   24.2933   70.4813   -0.6907 O   0  0  0  0  0  0  0  0  0  0  0  0
   23.8149   71.0505   -1.6603 C   0  0  0  0  0  0  0  0  0  0  0  0
  1  4  1  0
  1 24  1  0
  1  2  1  6
  1  3  2  0
 25 28  1  0
 25 24  1  0
 25 26  1  1
 25 27  2  0
  6 11  1  0
  6 12  1  0
 29 36  1  0
 29 37  1  0
  9  7  1  6
  7 13  1  0
 10  8  1  6
  8 14  1  0
  4  5  1  0
 36 28  1  1
 33 30  1  1
 30 38  1  0
 34 31  1  6
 31 39  1  0
 35 32  1  1
 32 40  1  0
 41 43  1  0
 15 19  2  0
 42 43  2  0
 16 22  2  0
 12 17  1  1
 17 19  1  0
 17 20  1  0
 18 19  1  0
 18 22  1  0
 18 23  1  0
  9 10  1  0
  9 11  1  0
 10 12  1  0
 11  5  1  1
 33 34  1  0
 33 35  1  0
 34 36  1  0
 35 37  1  0
 37 43  1  1
 20 21  2  0
 21 22  1  0
M  CHG  3   2  -1  26  -1  41  -1
M  END
>  <COMPND>  (162) 
    udp_gluA.pdb 

>  <AUTHOR>  (162) 
    GENERATED BY OPEN BABEL 3.1.1

>  <MASTER>  (162) 
        0    0    0    0    0    0    0    0   56    0   56    0

>  <minimizedAffinity>  (162) 
-7.75714

>  <CNNscore>  (162) 
0.6212182045

>  <CNNaffinity>  (162) 
4.4206156731

>  <CNN_VS>  (162) 
2.7461669445

>  <CNNaffinity_variance>  (162) 
0.6576422453

$$$$
163
     RDKit          3D

 43 45  0  0  0  0  0  0  0  0999 V2000
   20.4605   72.0464   -4.1274 P   0  0  2  0  0  0  0  0  0  0  0  0
   19.4797   71.9188   -2.8465 O   0  0  0  0  0  0  0  0  0  0  0  0
   20.7386   73.4514   -4.5749 O   0  0  0  0  0  0  0  0  0  0  0  0
   19.7837   71.0779   -5.2328 O   0  0  0  0  0  0  0  0  0  0  0  0
   19.8305   71.4681   -6.5930 C   0  0  0  0  0  0  0  0  0  0  0  0
   18.4241   69.5197   -6.5359 O   0  0  0  0  0  0  0  0  0  0  0  0
   17.7790   70.1300   -9.4000 O   0  0  0  0  0  0  0  0  0  0  0  0
   15.5899   71.0802   -8.0806 O   0  0  0  0  0  0  0  0  0  0  0  0
   18.0095   71.0283   -8.3144 C   0  0  1  0  0  0  0  0  0  0  0  0
   16.8167   71.0408   -7.3821 C   0  0  2  0  0  0  0  0  0  0  0  0
   19.0970   70.4300   -7.4325 C   0  0  1  0  0  0  0  0  0  0  0  0
   17.0077   69.7475   -6.6082 C   0  0  2  0  0  0  0  0  0  0  0  0
   17.0878   70.4909   -9.9775 H   0  0  0  0  0  0  0  0  0  0  0  0
   15.5158   71.9228   -8.5566 H   0  0  0  0  0  0  0  0  0  0  0  0
   16.5935   67.5154   -4.9281 O   0  0  0  0  0  0  0  0  0  0  0  0
   14.9709   70.1548   -1.5158 O   0  0  0  0  0  0  0  0  0  0  0  0
   16.4783   69.8228   -5.2760 N   0  0  0  0  0  0  0  0  0  0  0  0
   15.7848   68.8320   -3.2306 N   0  0  0  0  0  0  0  0  0  0  0  0
   16.3093   68.6415   -4.5157 C   0  0  0  0  0  0  0  0  0  0  0  0
   16.1343   71.0557   -4.7350 C   0  0  0  0  0  0  0  0  0  0  0  0
   15.6356   71.2215   -3.5084 C   0  0  0  0  0  0  0  0  0  0  0  0
   15.4272   70.0376   -2.6490 C   0  0  0  0  0  0  0  0  0  0  0  0
   15.6563   68.0238   -2.6831 H   0  0  0  0  0  0  0  0  0  0  0  0
   21.7681   71.2148   -3.6676 O   0  0  0  0  0  0  0  0  0  0  0  0
   23.2747   71.7015   -3.3408 P   0  0  2  0  0  0  0  0  0  0  0  0
   23.8060   72.2449   -4.7700 O   0  0  0  0  0  0  0  0  0  0  0  0
   24.1420   70.6451   -2.7197 O   0  0  0  0  0  0  0  0  0  0  0  0
   23.0904   73.0292   -2.4433 O   0  0  0  0  0  0  0  0  0  0  0  0
   23.9741   74.2635   -0.6254 O   0  0  0  0  0  0  0  0  0  0  0  0
   20.1629   73.4026    0.7167 O   0  0  0  0  0  0  0  0  0  0  0  0
   21.7405   71.3694   -0.6660 O   0  0  0  0  0  0  0  0  0  0  0  0
   20.8062   76.0729   -0.2355 O   0  0  0  0  0  0  0  0  0  0  0  0
   21.1682   73.6910   -0.2550 C   0  0  2  0  0  0  0  0  0  0  0  0
   22.2525   72.6143   -0.2046 C   0  0  2  0  0  0  0  0  0  0  0  0
   21.7638   75.0619    0.0732 C   0  0  1  0  0  0  0  0  0  0  0  0
   23.4545   73.0078   -1.0643 C   0  0  1  0  0  0  0  0  0  0  0  0
   23.0307   75.3269   -0.7350 C   0  0  1  0  0  0  0  0  0  0  0  0
   19.7701   72.5357    0.5283 H   0  0  0  0  0  0  0  0  0  0  0  0
   20.9772   71.1138   -0.1251 H   0  0  0  0  0  0  0  0  0  0  0  0
   19.9949   75.9158    0.2724 H   0  0  0  0  0  0  0  0  0  0  0  0
   23.4289   76.7203    1.1092 O   0  0  0  0  0  0  0  0  0  0  0  0
   24.5940   77.1635   -0.8000 O   0  0  0  0  0  0  0  0  0  0  0  0
   23.7778   76.4966   -0.1820 C   0  0  0  0  0  0  0  0  0  0  0  0
  1  4  1  0
  1 24  1  0
  1  2  1  1
  1  3  2  0
 25 28  1  0
 25 24  1  0
 25 26  1  6
 25 27  2  0
  6 11  1  0
  6 12  1  0
 29 36  1  0
 29 37  1  0
  9  7  1  6
  7 13  1  0
 10  8  1  6
  8 14  1  0
  4  5  1  0
 36 28  1  6
 33 30  1  1
 30 38  1  0
 34 31  1  6
 31 39  1  0
 35 32  1  6
 32 40  1  0
 41 43  1  0
 15 19  2  0
 42 43  2  0
 16 22  2  0
 12 17  1  1
 17 19  1  0
 17 20  1  0
 18 19  1  0
 18 22  1  0
 18 23  1  0
  9 10  1  0
  9 11  1  0
 10 12  1  0
 11  5  1  1
 33 34  1  0
 33 35  1  0
 34 36  1  0
 35 37  1  0
 37 43  1  1
 20 21  2  0
 21 22  1  0
M  CHG  3   2  -1  26  -1  41  -1
M  END
>  <COMPND>  (163) 
    udp_gluA.pdb 

>  <AUTHOR>  (163) 
    GENERATED BY OPEN BABEL 3.1.1

>  <MASTER>  (163) 
        0    0    0    0    0    0    0    0   56    0   56    0

>  <minimizedAffinity>  (163) 
-7.51353

>  <CNNscore>  (163) 
0.6192086935

>  <CNNaffinity>  (163) 
4.4391012192

>  <CNN_VS>  (163) 
2.7487301826

>  <CNNaffinity_variance>  (163) 
0.0834638253

$$$$
164
     RDKit          3D

 43 45  0  0  0  0  0  0  0  0999 V2000
   22.5590   73.2481   -6.1237 P   0  0  2  0  0  0  0  0  0  0  0  0
   22.8250   73.4449   -7.7078 O   0  0  0  0  0  0  0  0  0  0  0  0
   23.7733   72.8930   -5.3168 O   0  0  0  0  0  0  0  0  0  0  0  0
   21.3401   72.1858   -6.0635 O   0  0  0  0  0  0  0  0  0  0  0  0
   20.1972   72.4219   -6.8650 C   0  0  0  0  0  0  0  0  0  0  0  0
   19.2879   70.2341   -6.4596 O   0  0  0  0  0  0  0  0  0  0  0  0
   18.6254   70.1713   -9.3834 O   0  0  0  0  0  0  0  0  0  0  0  0
   16.2261   70.7846   -8.2418 O   0  0  0  0  0  0  0  0  0  0  0  0
   18.5970   71.2715   -8.4738 C   0  0  1  0  0  0  0  0  0  0  0  0
   17.4005   71.1594   -7.5528 C   0  0  2  0  0  0  0  0  0  0  0  0
   19.7608   71.1105   -7.5054 C   0  0  1  0  0  0  0  0  0  0  0  0
   17.8614   70.1019   -6.5644 C   0  0  2  0  0  0  0  0  0  0  0  0
   17.8908   70.2522  -10.0123 H   0  0  0  0  0  0  0  0  0  0  0  0
   15.9737   71.4904   -8.8583 H   0  0  0  0  0  0  0  0  0  0  0  0
   16.9041   67.9923   -4.9489 O   0  0  0  0  0  0  0  0  0  0  0  0
   15.6483   70.8898   -1.5916 O   0  0  0  0  0  0  0  0  0  0  0  0
   17.2795   70.2767   -5.2638 N   0  0  0  0  0  0  0  0  0  0  0  0
   16.2787   69.4376   -3.2787 N   0  0  0  0  0  0  0  0  0  0  0  0
   16.8297   69.1507   -4.5346 C   0  0  0  0  0  0  0  0  0  0  0  0
   17.1606   71.5511   -4.7228 C   0  0  0  0  0  0  0  0  0  0  0  0
   16.6332   71.8088   -3.5243 C   0  0  0  0  0  0  0  0  0  0  0  0
   16.1384   70.6879   -2.6985 C   0  0  0  0  0  0  0  0  0  0  0  0
   15.9566   68.6697   -2.7533 H   0  0  0  0  0  0  0  0  0  0  0  0
   21.8512   74.6379   -5.6992 O   0  0  0  0  0  0  0  0  0  0  0  0
   21.1570   75.0953   -4.3126 P   0  0  2  0  0  0  0  0  0  0  0  0
   19.5803   75.1186   -4.6784 O   0  0  0  0  0  0  0  0  0  0  0  0
   21.6824   76.3876   -3.7579 O   0  0  0  0  0  0  0  0  0  0  0  0
   21.3285   73.8266   -3.3310 O   0  0  0  0  0  0  0  0  0  0  0  0
   19.8631   72.1806   -2.4635 O   0  0  0  0  0  0  0  0  0  0  0  0
   22.2536   72.9863    0.8082 O   0  0  0  0  0  0  0  0  0  0  0  0
   21.2859   75.1580   -0.8894 O   0  0  0  0  0  0  0  0  0  0  0  0
   22.6417   70.5414   -0.7158 O   0  0  0  0  0  0  0  0  0  0  0  0
   21.9478   72.8446   -0.5790 C   0  0  2  0  0  0  0  0  0  0  0  0
   20.8268   73.8129   -0.9574 C   0  0  2  0  0  0  0  0  0  0  0  0
   21.5070   71.3993   -0.8208 C   0  0  1  0  0  0  0  0  0  0  0  0
   20.3153   73.5321   -2.3711 C   0  0  1  0  0  0  0  0  0  0  0  0
   20.8932   71.2286   -2.2075 C   0  0  1  0  0  0  0  0  0  0  0  0
   22.5362   73.8973    0.9858 H   0  0  0  0  0  0  0  0  0  0  0  0
   21.6121   75.3430    0.0049 H   0  0  0  0  0  0  0  0  0  0  0  0
   23.0418   70.6405    0.1623 H   0  0  0  0  0  0  0  0  0  0  0  0
   19.7057   69.5350   -1.1017 O   0  0  0  0  0  0  0  0  0  0  0  0
   20.0279   69.2848   -3.3451 O   0  0  0  0  0  0  0  0  0  0  0  0
   20.1763   69.9220   -2.3131 C   0  0  0  0  0  0  0  0  0  0  0  0
  1  4  1  0
  1 24  1  0
  1  2  1  6
  1  3  2  0
 25 28  1  0
 25 24  1  0
 25 26  1  6
 25 27  2  0
  6 11  1  0
  6 12  1  0
 29 36  1  0
 29 37  1  0
  9  7  1  6
  7 13  1  0
 10  8  1  6
  8 14  1  0
  4  5  1  0
 36 28  1  6
 33 30  1  1
 30 38  1  0
 34 31  1  6
 31 39  1  0
 35 32  1  6
 32 40  1  0
 41 43  1  0
 15 19  2  0
 42 43  2  0
 16 22  2  0
 12 17  1  1
 17 19  1  0
 17 20  1  0
 18 19  1  0
 18 22  1  0
 18 23  1  0
  9 10  1  0
  9 11  1  0
 10 12  1  0
 11  5  1  1
 33 34  1  0
 33 35  1  0
 34 36  1  0
 35 37  1  0
 37 43  1  1
 20 21  2  0
 21 22  1  0
M  CHG  3   2  -1  26  -1  41  -1
M  END
>  <COMPND>  (164) 
    udp_gluA.pdb 

>  <AUTHOR>  (164) 
    GENERATED BY OPEN BABEL 3.1.1

>  <MASTER>  (164) 
        0    0    0    0    0    0    0    0   56    0   56    0

>  <minimizedAffinity>  (164) 
-7.13599

>  <CNNscore>  (164) 
0.5983549356

>  <CNNaffinity>  (164) 
4.3385429382

>  <CNN_VS>  (164) 
2.5959885120

>  <CNNaffinity_variance>  (164) 
0.4057114720

$$$$
165
     RDKit          3D

 43 45  0  0  0  0  0  0  0  0999 V2000
   20.4844   70.5786   -1.5664 P   0  0  2  0  0  0  0  0  0  0  0  0
   20.2556   69.2948   -0.6080 O   0  0  0  0  0  0  0  0  0  0  0  0
   19.6206   71.7650   -1.2531 O   0  0  0  0  0  0  0  0  0  0  0  0
   20.3380   69.9781   -3.0617 O   0  0  0  0  0  0  0  0  0  0  0  0
   19.4560   68.8904   -3.2702 C   0  0  0  0  0  0  0  0  0  0  0  0
   17.7555   70.3146   -4.1962 O   0  0  0  0  0  0  0  0  0  0  0  0
   15.7947   68.6903   -2.6123 O   0  0  0  0  0  0  0  0  0  0  0  0
   15.5322   67.6590   -5.1230 O   0  0  0  0  0  0  0  0  0  0  0  0
   16.9883   68.2718   -3.2747 C   0  0  1  0  0  0  0  0  0  0  0  0
   16.7720   68.2376   -4.7728 C   0  0  2  0  0  0  0  0  0  0  0  0
   18.0210   69.3809   -3.1271 C   0  0  1  0  0  0  0  0  0  0  0  0
   16.8537   69.7102   -5.1369 C   0  0  2  0  0  0  0  0  0  0  0  0
   15.1199   67.9977   -2.6930 H   0  0  0  0  0  0  0  0  0  0  0  0
   15.5301   66.7217   -4.8711 H   0  0  0  0  0  0  0  0  0  0  0  0
   15.6705   71.4331   -7.0364 O   0  0  0  0  0  0  0  0  0  0  0  0
   18.8663   70.4338  -10.2038 O   0  0  0  0  0  0  0  0  0  0  0  0
   17.3558   69.9191   -6.4655 N   0  0  0  0  0  0  0  0  0  0  0  0
   17.2627   70.9330   -8.6125 N   0  0  0  0  0  0  0  0  0  0  0  0
   16.6866   70.8060   -7.3416 C   0  0  0  0  0  0  0  0  0  0  0  0
   18.4989   69.2514   -6.8879 C   0  0  0  0  0  0  0  0  0  0  0  0
   19.0362   69.3827   -8.1023 C   0  0  0  0  0  0  0  0  0  0  0  0
   18.3977   70.2895   -9.0787 C   0  0  0  0  0  0  0  0  0  0  0  0
   16.8133   71.5434   -9.2408 H   0  0  0  0  0  0  0  0  0  0  0  0
   22.0728   70.8492   -1.4373 O   0  0  0  0  0  0  0  0  0  0  0  0
   23.0765   71.7316   -2.3471 P   0  0  2  0  0  0  0  0  0  0  0  0
   24.2600   70.6886   -2.7102 O   0  0  0  0  0  0  0  0  0  0  0  0
   23.5475   72.9982   -1.6932 O   0  0  0  0  0  0  0  0  0  0  0  0
   22.2853   71.9494   -3.7360 O   0  0  0  0  0  0  0  0  0  0  0  0
   22.9795   73.9195   -4.8522 O   0  0  0  0  0  0  0  0  0  0  0  0
   19.8216   72.6844   -7.2123 O   0  0  0  0  0  0  0  0  0  0  0  0
   19.6310   72.5597   -4.2999 O   0  0  0  0  0  0  0  0  0  0  0  0
   22.5574   72.2926   -8.1137 O   0  0  0  0  0  0  0  0  0  0  0  0
   20.9407   72.5183   -6.3417 C   0  0  2  0  0  0  0  0  0  0  0  0
   20.6657   73.2255   -5.0144 C   0  0  2  0  0  0  0  0  0  0  0  0
   22.1665   73.1279   -7.0256 C   0  0  1  0  0  0  0  0  0  0  0  0
   21.9237   73.2670   -4.1457 C   0  0  1  0  0  0  0  0  0  0  0  0
   23.3405   73.2506   -6.0586 C   0  0  1  0  0  0  0  0  0  0  0  0
   19.0306   72.3044   -6.7985 H   0  0  0  0  0  0  0  0  0  0  0  0
   18.8297   72.5295   -4.8453 H   0  0  0  0  0  0  0  0  0  0  0  0
   21.8189   72.2061   -8.7366 H   0  0  0  0  0  0  0  0  0  0  0  0
   24.1404   74.4290   -7.9222 O   0  0  0  0  0  0  0  0  0  0  0  0
   25.3807   74.5377   -6.0121 O   0  0  0  0  0  0  0  0  0  0  0  0
   24.4048   74.1327   -6.6256 C   0  0  0  0  0  0  0  0  0  0  0  0
  1  4  1  0
  1 24  1  0
  1  2  1  1
  1  3  2  0
 25 28  1  0
 25 24  1  0
 25 26  1  6
 25 27  2  0
  6 11  1  0
  6 12  1  0
 29 36  1  0
 29 37  1  0
  9  7  1  1
  7 13  1  0
 10  8  1  1
  8 14  1  0
  4  5  1  0
 36 28  1  6
 33 30  1  6
 30 38  1  0
 34 31  1  1
 31 39  1  0
 35 32  1  6
 32 40  1  0
 41 43  1  0
 15 19  2  0
 42 43  2  0
 16 22  2  0
 12 17  1  6
 17 19  1  0
 17 20  1  0
 18 19  1  0
 18 22  1  0
 18 23  1  0
  9 10  1  0
  9 11  1  0
 10 12  1  0
 11  5  1  6
 33 34  1  0
 33 35  1  0
 34 36  1  0
 35 37  1  0
 37 43  1  6
 20 21  2  0
 21 22  1  0
M  CHG  3   2  -1  26  -1  41  -1
M  END
>  <COMPND>  (165) 
    udp_gluA.pdb 

>  <AUTHOR>  (165) 
    GENERATED BY OPEN BABEL 3.1.1

>  <MASTER>  (165) 
        0    0    0    0    0    0    0    0   56    0   56    0

>  <minimizedAffinity>  (165) 
-8.68528

>  <CNNscore>  (165) 
0.5664434433

>  <CNNaffinity>  (165) 
4.4154877663

>  <CNN_VS>  (165) 
2.5011241436

>  <CNNaffinity_variance>  (165) 
0.6089039445

$$$$
166
     RDKit          3D

 43 45  0  0  0  0  0  0  0  0999 V2000
   21.3406   71.1702   -1.7065 P   0  0  2  0  0  0  0  0  0  0  0  0
   22.6770   70.7355   -0.9040 O   0  0  0  0  0  0  0  0  0  0  0  0
   20.5454   72.2690   -1.0645 O   0  0  0  0  0  0  0  0  0  0  0  0
   20.5538   69.7750   -1.9355 O   0  0  0  0  0  0  0  0  0  0  0  0
   19.9067   69.5595   -3.1761 C   0  0  0  0  0  0  0  0  0  0  0  0
   17.8952   70.5068   -4.0896 O   0  0  0  0  0  0  0  0  0  0  0  0
   16.4121   68.5885   -2.3255 O   0  0  0  0  0  0  0  0  0  0  0  0
   16.2966   67.3688   -4.7617 O   0  0  0  0  0  0  0  0  0  0  0  0
   17.6441   68.4063   -3.0239 C   0  0  1  0  0  0  0  0  0  0  0  0
   17.3857   68.2306   -4.5053 C   0  0  2  0  0  0  0  0  0  0  0  0
   18.4042   69.7250   -2.9873 C   0  0  1  0  0  0  0  0  0  0  0  0
   17.1191   69.6584   -4.9505 C   0  0  2  0  0  0  0  0  0  0  0  0
   15.9087   67.7589   -2.3354 H   0  0  0  0  0  0  0  0  0  0  0  0
   16.5157   66.4725   -4.4608 H   0  0  0  0  0  0  0  0  0  0  0  0
   15.6788   71.2637   -6.7740 O   0  0  0  0  0  0  0  0  0  0  0  0
   18.7182   70.4771  -10.1486 O   0  0  0  0  0  0  0  0  0  0  0  0
   17.5114   69.8902   -6.3118 N   0  0  0  0  0  0  0  0  0  0  0  0
   17.1934   70.8696   -8.4533 N   0  0  0  0  0  0  0  0  0  0  0  0
   16.7172   70.7131   -7.1450 C   0  0  0  0  0  0  0  0  0  0  0  0
   18.6712   69.3075   -6.8082 C   0  0  0  0  0  0  0  0  0  0  0  0
   19.1123   69.4660   -8.0576 C   0  0  0  0  0  0  0  0  0  0  0  0
   18.3403   70.3100   -8.9930 C   0  0  0  0  0  0  0  0  0  0  0  0
   16.6561   71.4365   -9.0527 H   0  0  0  0  0  0  0  0  0  0  0  0
   21.9005   71.5181   -3.1824 O   0  0  0  0  0  0  0  0  0  0  0  0
   22.5703   72.8657   -3.7730 P   0  0  2  0  0  0  0  0  0  0  0  0
   23.8059   72.3077   -4.6575 O   0  0  0  0  0  0  0  0  0  0  0  0
   22.9622   73.8684   -2.7266 O   0  0  0  0  0  0  0  0  0  0  0  0
   21.5068   73.4102   -4.8570 O   0  0  0  0  0  0  0  0  0  0  0  0
   19.3291   73.4224   -3.9261 O   0  0  0  0  0  0  0  0  0  0  0  0
   18.5909   74.6294   -7.8076 O   0  0  0  0  0  0  0  0  0  0  0  0
   20.4781   72.4669   -7.2628 O   0  0  0  0  0  0  0  0  0  0  0  0
   18.5474   76.5694   -5.6430 O   0  0  0  0  0  0  0  0  0  0  0  0
   19.3454   74.5081   -6.6018 C   0  0  2  0  0  0  0  0  0  0  0  0
   19.5942   73.0300   -6.3003 C   0  0  2  0  0  0  0  0  0  0  0  0
   18.5391   75.1533   -5.4724 C   0  0  1  0  0  0  0  0  0  0  0  0
   20.1960   72.8498   -4.9060 C   0  0  1  0  0  0  0  0  0  0  0  0
   19.1319   74.8230   -4.1057 C   0  0  1  0  0  0  0  0  0  0  0  0
   19.0837   74.2262   -8.5396 H   0  0  0  0  0  0  0  0  0  0  0  0
   20.1026   72.5780   -8.1500 H   0  0  0  0  0  0  0  0  0  0  0  0
   18.1727   76.7929   -6.5092 H   0  0  0  0  0  0  0  0  0  0  0  0
   16.9643   75.5080   -3.5276 O   0  0  0  0  0  0  0  0  0  0  0  0
   18.4323   75.1505   -1.8199 O   0  0  0  0  0  0  0  0  0  0  0  0
   18.1727   75.1695   -3.0137 C   0  0  0  0  0  0  0  0  0  0  0  0
  1  4  1  0
  1 24  1  0
  1  2  1  1
  1  3  2  0
 25 28  1  0
 25 24  1  0
 25 26  1  6
 25 27  2  0
  6 11  1  0
  6 12  1  0
 29 36  1  0
 29 37  1  0
  9  7  1  1
  7 13  1  0
 10  8  1  1
  8 14  1  0
  4  5  1  0
 36 28  1  6
 33 30  1  6
 30 38  1  0
 34 31  1  6
 31 39  1  0
 35 32  1  6
 32 40  1  0
 41 43  1  0
 15 19  2  0
 42 43  2  0
 16 22  2  0
 12 17  1  6
 17 19  1  0
 17 20  1  0
 18 19  1  0
 18 22  1  0
 18 23  1  0
  9 10  1  0
  9 11  1  0
 10 12  1  0
 11  5  1  6
 33 34  1  0
 33 35  1  0
 34 36  1  0
 35 37  1  0
 37 43  1  1
 20 21  2  0
 21 22  1  0
M  CHG  3   2  -1  26  -1  41  -1
M  END
>  <COMPND>  (166) 
    udp_gluA.pdb 

>  <AUTHOR>  (166) 
    GENERATED BY OPEN BABEL 3.1.1

>  <MASTER>  (166) 
        0    0    0    0    0    0    0    0   56    0   56    0

>  <minimizedAffinity>  (166) 
-7.27189

>  <CNNscore>  (166) 
0.5447081923

>  <CNNaffinity>  (166) 
4.3016099930

>  <CNN_VS>  (166) 
2.3431222439

>  <CNNaffinity_variance>  (166) 
0.5605784655

$$$$
167
     RDKit          3D

 43 45  0  0  0  0  0  0  0  0999 V2000
   22.1775   71.1326   -1.9875 P   0  0  2  0  0  0  0  0  0  0  0  0
   23.5978   70.7701   -2.6733 O   0  0  0  0  0  0  0  0  0  0  0  0
   21.7604   70.2185   -0.8730 O   0  0  0  0  0  0  0  0  0  0  0  0
   21.1552   71.2277   -3.2381 O   0  0  0  0  0  0  0  0  0  0  0  0
   20.4762   70.0545   -3.6469 C   0  0  0  0  0  0  0  0  0  0  0  0
   18.3688   70.8814   -4.4552 O   0  0  0  0  0  0  0  0  0  0  0  0
   17.0954   69.0966   -2.4096 O   0  0  0  0  0  0  0  0  0  0  0  0
   16.8002   67.6678   -4.7134 O   0  0  0  0  0  0  0  0  0  0  0  0
   18.2662   68.8772   -3.1967 C   0  0  1  0  0  0  0  0  0  0  0  0
   17.8847   68.5686   -4.6290 C   0  0  2  0  0  0  0  0  0  0  0  0
   18.9920   70.2080   -3.3400 C   0  0  1  0  0  0  0  0  0  0  0  0
   17.5432   69.9471   -5.1684 C   0  0  2  0  0  0  0  0  0  0  0  0
   16.6149   68.2601   -2.3042 H   0  0  0  0  0  0  0  0  0  0  0  0
   17.0680   66.8053   -4.3580 H   0  0  0  0  0  0  0  0  0  0  0  0
   15.9020   71.3508   -6.9885 O   0  0  0  0  0  0  0  0  0  0  0  0
   18.6625   70.3408  -10.5387 O   0  0  0  0  0  0  0  0  0  0  0  0
   17.8095   70.0669   -6.5740 N   0  0  0  0  0  0  0  0  0  0  0  0
   17.2779   70.8456   -8.7551 N   0  0  0  0  0  0  0  0  0  0  0  0
   16.9212   70.7942   -7.4012 C   0  0  0  0  0  0  0  0  0  0  0  0
   18.9397   69.4700   -7.1191 C   0  0  0  0  0  0  0  0  0  0  0  0
   19.2665   69.5278   -8.4117 C   0  0  0  0  0  0  0  0  0  0  0  0
   18.3909   70.2676   -9.3441 C   0  0  0  0  0  0  0  0  0  0  0  0
   16.6737   71.3446   -9.3511 H   0  0  0  0  0  0  0  0  0  0  0  0
   22.3673   72.6785   -1.5551 O   0  0  0  0  0  0  0  0  0  0  0  0
   21.9261   73.4677   -0.2149 P   0  0  2  0  0  0  0  0  0  0  0  0
   22.7872   72.7371    0.9449 O   0  0  0  0  0  0  0  0  0  0  0  0
   20.4452   73.4832    0.0313 O   0  0  0  0  0  0  0  0  0  0  0  0
   22.5959   74.9280   -0.3605 O   0  0  0  0  0  0  0  0  0  0  0  0
   24.2243   75.5758   -1.9536 O   0  0  0  0  0  0  0  0  0  0  0  0
   25.0006   78.1877    1.1518 O   0  0  0  0  0  0  0  0  0  0  0  0
   24.4189   75.3762    1.6918 O   0  0  0  0  0  0  0  0  0  0  0  0
   23.6131   79.1198   -1.2266 O   0  0  0  0  0  0  0  0  0  0  0  0
   24.1908   77.3612    0.3157 C   0  0  2  0  0  0  0  0  0  0  0  0
   24.6777   75.9144    0.4003 C   0  0  2  0  0  0  0  0  0  0  0  0
   24.3095   77.8797   -1.1193 C   0  0  1  0  0  0  0  0  0  0  0  0
   23.9880   75.0427   -0.6500 C   0  0  1  0  0  0  0  0  0  0  0  0
   23.7094   76.8951   -2.1188 C   0  0  1  0  0  0  0  0  0  0  0  0
   24.9410   77.8770    2.0690 H   0  0  0  0  0  0  0  0  0  0  0  0
   24.8534   75.9246    2.3632 H   0  0  0  0  0  0  0  0  0  0  0  0
   23.9853   79.7554   -0.5954 H   0  0  0  0  0  0  0  0  0  0  0  0
   23.3708   78.2706   -3.9883 O   0  0  0  0  0  0  0  0  0  0  0  0
   24.9989   76.6821   -4.1469 O   0  0  0  0  0  0  0  0  0  0  0  0
   24.1161   77.2417   -3.5141 C   0  0  0  0  0  0  0  0  0  0  0  0
  1  4  1  0
  1 24  1  0
  1  2  1  6
  1  3  2  0
 25 28  1  0
 25 24  1  0
 25 26  1  1
 25 27  2  0
  6 11  1  0
  6 12  1  0
 29 36  1  0
 29 37  1  0
  9  7  1  1
  7 13  1  0
 10  8  1  1
  8 14  1  0
  4  5  1  0
 36 28  1  1
 33 30  1  1
 30 38  1  0
 34 31  1  1
 31 39  1  0
 35 32  1  1
 32 40  1  0
 41 43  1  0
 15 19  2  0
 42 43  2  0
 16 22  2  0
 12 17  1  6
 17 19  1  0
 17 20  1  0
 18 19  1  0
 18 22  1  0
 18 23  1  0
  9 10  1  0
  9 11  1  0
 10 12  1  0
 11  5  1  6
 33 34  1  0
 33 35  1  0
 34 36  1  0
 35 37  1  0
 37 43  1  6
 20 21  2  0
 21 22  1  0
M  CHG  3   2  -1  26  -1  41  -1
M  END
>  <COMPND>  (167) 
    udp_gluA.pdb 

>  <AUTHOR>  (167) 
    GENERATED BY OPEN BABEL 3.1.1

>  <MASTER>  (167) 
        0    0    0    0    0    0    0    0   56    0   56    0

>  <minimizedAffinity>  (167) 
-7.37440

>  <CNNscore>  (167) 
0.5270766020

>  <CNNaffinity>  (167) 
4.5232896805

>  <CNN_VS>  (167) 
2.3841202259

>  <CNNaffinity_variance>  (167) 
0.0671867728

$$$$
168
     RDKit          3D

 43 45  0  0  0  0  0  0  0  0999 V2000
   20.3624   70.3719   -1.6572 P   0  0  2  0  0  0  0  0  0  0  0  0
   20.7590   69.8858   -3.1489 O   0  0  0  0  0  0  0  0  0  0  0  0
   20.0421   69.2662   -0.6946 O   0  0  0  0  0  0  0  0  0  0  0  0
   19.1844   71.4539   -1.9015 O   0  0  0  0  0  0  0  0  0  0  0  0
   18.7066   71.6470   -3.2202 C   0  0  0  0  0  0  0  0  0  0  0  0
   16.7603   71.4794   -4.6207 O   0  0  0  0  0  0  0  0  0  0  0  0
   15.7147   69.5118   -2.6140 O   0  0  0  0  0  0  0  0  0  0  0  0
   16.6238   67.8967   -4.6143 O   0  0  0  0  0  0  0  0  0  0  0  0
   17.0540   69.7191   -3.0631 C   0  0  1  0  0  0  0  0  0  0  0  0
   17.2303   69.1627   -4.4602 C   0  0  2  0  0  0  0  0  0  0  0  0
   17.2482   71.2124   -3.2880 C   0  0  1  0  0  0  0  0  0  0  0  0
   16.5716   70.2344   -5.3119 C   0  0  2  0  0  0  0  0  0  0  0  0
   15.5667   68.5646   -2.4635 H   0  0  0  0  0  0  0  0  0  0  0  0
   17.0789   67.2495   -4.0522 H   0  0  0  0  0  0  0  0  0  0  0  0
   15.3703   71.5504   -7.5031 O   0  0  0  0  0  0  0  0  0  0  0  0
   18.9100   70.5482  -10.2799 O   0  0  0  0  0  0  0  0  0  0  0  0
   17.1573   70.3325   -6.6188 N   0  0  0  0  0  0  0  0  0  0  0  0
   17.1340   71.0491   -8.8843 N   0  0  0  0  0  0  0  0  0  0  0  0
   16.4709   71.0156   -7.6505 C   0  0  0  0  0  0  0  0  0  0  0  0
   18.3978   69.7580   -6.8679 C   0  0  0  0  0  0  0  0  0  0  0  0
   19.0173   69.7983   -8.0491 C   0  0  0  0  0  0  0  0  0  0  0  0
   18.3675   70.4921   -9.1804 C   0  0  0  0  0  0  0  0  0  0  0  0
   16.6747   71.5174   -9.6185 H   0  0  0  0  0  0  0  0  0  0  0  0
   21.6195   71.2938   -1.2296 O   0  0  0  0  0  0  0  0  0  0  0  0
   21.7027   72.8604   -0.8392 P   0  0  2  0  0  0  0  0  0  0  0  0
   23.2588   73.0600   -0.4402 O   0  0  0  0  0  0  0  0  0  0  0  0
   20.7322   73.2820    0.2259 O   0  0  0  0  0  0  0  0  0  0  0  0
   21.5386   73.6409   -2.2414 O   0  0  0  0  0  0  0  0  0  0  0  0
   21.8874   72.8959   -4.4623 O   0  0  0  0  0  0  0  0  0  0  0  0
   22.9755   76.8725   -4.7289 O   0  0  0  0  0  0  0  0  0  0  0  0
   23.7882   75.2658   -2.4284 O   0  0  0  0  0  0  0  0  0  0  0  0
   20.4201   75.9844   -5.7929 O   0  0  0  0  0  0  0  0  0  0  0  0
   22.2419   75.7525   -4.2334 C   0  0  2  0  0  0  0  0  0  0  0  0
   23.2077   74.7405   -3.6165 C   0  0  2  0  0  0  0  0  0  0  0  0
   21.4896   75.1228   -5.4079 C   0  0  1  0  0  0  0  0  0  0  0  0
   22.4898   73.4318   -3.2836 C   0  0  1  0  0  0  0  0  0  0  0  0
   20.9091   73.7625   -5.0325 C   0  0  1  0  0  0  0  0  0  0  0  0
   23.4619   77.2888   -3.9999 H   0  0  0  0  0  0  0  0  0  0  0  0
   24.2452   76.0965   -2.6322 H   0  0  0  0  0  0  0  0  0  0  0  0
   20.7761   76.8538   -6.0342 H   0  0  0  0  0  0  0  0  0  0  0  0
   19.1648   73.2644   -6.5195 O   0  0  0  0  0  0  0  0  0  0  0  0
   21.1855   72.2877   -6.9219 O   0  0  0  0  0  0  0  0  0  0  0  0
   20.4711   73.0179   -6.2516 C   0  0  0  0  0  0  0  0  0  0  0  0
  1  4  1  0
  1 24  1  0
  1  2  1  6
  1  3  2  0
 25 28  1  0
 25 24  1  0
 25 26  1  1
 25 27  2  0
  6 11  1  0
  6 12  1  0
 29 36  1  0
 29 37  1  0
  9  7  1  6
  7 13  1  0
 10  8  1  1
  8 14  1  0
  4  5  1  0
 36 28  1  1
 33 30  1  6
 30 38  1  0
 34 31  1  1
 31 39  1  0
 35 32  1  1
 32 40  1  0
 41 43  1  0
 15 19  2  0
 42 43  2  0
 16 22  2  0
 12 17  1  6
 17 19  1  0
 17 20  1  0
 18 19  1  0
 18 22  1  0
 18 23  1  0
  9 10  1  0
  9 11  1  0
 10 12  1  0
 11  5  1  6
 33 34  1  0
 33 35  1  0
 34 36  1  0
 35 37  1  0
 37 43  1  6
 20 21  2  0
 21 22  1  0
M  CHG  3   2  -1  26  -1  41  -1
M  END
>  <COMPND>  (168) 
    udp_gluA.pdb 

>  <AUTHOR>  (168) 
    GENERATED BY OPEN BABEL 3.1.1

>  <MASTER>  (168) 
        0    0    0    0    0    0    0    0   56    0   56    0

>  <minimizedAffinity>  (168) 
-7.14916

>  <CNNscore>  (168) 
0.5095545650

>  <CNNaffinity>  (168) 
4.2509670258

>  <CNN_VS>  (168) 
2.1660995483

>  <CNNaffinity_variance>  (168) 
0.3518961966

$$$$
169
     RDKit          3D

 43 45  0  0  0  0  0  0  0  0999 V2000
   18.6738   69.1687   -4.1962 P   0  0  2  0  0  0  0  0  0  0  0  0
   19.6189   68.1271   -3.3958 O   0  0  0  0  0  0  0  0  0  0  0  0
   17.2157   68.8149   -4.2158 O   0  0  0  0  0  0  0  0  0  0  0  0
   19.3836   69.3038   -5.6439 O   0  0  0  0  0  0  0  0  0  0  0  0
   19.1664   70.4836   -6.3959 C   0  0  0  0  0  0  0  0  0  0  0  0
   16.9343   70.3453   -7.2769 O   0  0  0  0  0  0  0  0  0  0  0  0
   18.2051   70.3579   -9.9928 O   0  0  0  0  0  0  0  0  0  0  0  0
   17.3545   72.9345   -9.7210 O   0  0  0  0  0  0  0  0  0  0  0  0
   18.5963   71.0534   -8.8089 C   0  0  1  0  0  0  0  0  0  0  0  0
   17.6564   72.2110   -8.5463 C   0  0  2  0  0  0  0  0  0  0  0  0
   18.3230   70.1447   -7.6182 C   0  0  1  0  0  0  0  0  0  0  0  0
   16.4425   71.5060   -7.9655 C   0  0  2  0  0  0  0  0  0  0  0  0
   18.3703   70.9188  -10.7673 H   0  0  0  0  0  0  0  0  0  0  0  0
   18.1593   73.3648  -10.0514 H   0  0  0  0  0  0  0  0  0  0  0  0
   14.3509   73.2639   -8.6809 O   0  0  0  0  0  0  0  0  0  0  0  0
   13.7520   74.6195   -4.3165 O   0  0  0  0  0  0  0  0  0  0  0  0
   15.7227   72.3302   -7.0362 N   0  0  0  0  0  0  0  0  0  0  0  0
   14.0553   73.9381   -6.5066 N   0  0  0  0  0  0  0  0  0  0  0  0
   14.6892   73.1787   -7.4988 C   0  0  0  0  0  0  0  0  0  0  0  0
   16.0411   72.2919   -5.6841 C   0  0  0  0  0  0  0  0  0  0  0  0
   15.4279   73.0216   -4.7502 C   0  0  0  0  0  0  0  0  0  0  0  0
   14.3372   73.9347   -5.1501 C   0  0  0  0  0  0  0  0  0  0  0  0
   13.3338   74.5380   -6.8048 H   0  0  0  0  0  0  0  0  0  0  0  0
   19.0141   70.5830   -3.4912 O   0  0  0  0  0  0  0  0  0  0  0  0
   18.6148   71.1678   -2.0379 P   0  0  2  0  0  0  0  0  0  0  0  0
   18.8235   69.8966   -1.0576 O   0  0  0  0  0  0  0  0  0  0  0  0
   17.2449   71.7788   -1.9751 O   0  0  0  0  0  0  0  0  0  0  0  0
   19.8156   72.1761   -1.6584 O   0  0  0  0  0  0  0  0  0  0  0  0
   21.9815   71.2586   -1.9343 O   0  0  0  0  0  0  0  0  0  0  0  0
   22.8111   74.7955    0.0330 O   0  0  0  0  0  0  0  0  0  0  0  0
   20.5406   73.1464    0.8453 O   0  0  0  0  0  0  0  0  0  0  0  0
   23.3309   74.5544   -2.8170 O   0  0  0  0  0  0  0  0  0  0  0  0
   22.0919   73.9313   -0.8468 C   0  0  2  0  0  0  0  0  0  0  0  0
   21.5556   72.7336   -0.0624 C   0  0  2  0  0  0  0  0  0  0  0  0
   23.0541   73.4633   -1.9410 C   0  0  1  0  0  0  0  0  0  0  0  0
   20.9805   71.6754   -1.0049 C   0  0  1  0  0  0  0  0  0  0  0  0
   22.4559   72.3216   -2.7578 C   0  0  1  0  0  0  0  0  0  0  0  0
   22.2197   75.1055    0.7369 H   0  0  0  0  0  0  0  0  0  0  0  0
   20.8985   73.8181    1.4463 H   0  0  0  0  0  0  0  0  0  0  0  0
   23.7119   75.2879   -2.3095 H   0  0  0  0  0  0  0  0  0  0  0  0
   23.6896   72.3321   -4.7526 O   0  0  0  0  0  0  0  0  0  0  0  0
   24.1178   70.6502   -3.2737 O   0  0  0  0  0  0  0  0  0  0  0  0
   23.5047   71.6587   -3.5902 C   0  0  0  0  0  0  0  0  0  0  0  0
  1  4  1  0
  1 24  1  0
  1  2  1  1
  1  3  2  0
 25 28  1  0
 25 24  1  0
 25 26  1  1
 25 27  2  0
  6 11  1  0
  6 12  1  0
 29 36  1  0
 29 37  1  0
  9  7  1  6
  7 13  1  0
 10  8  1  6
  8 14  1  0
  4  5  1  0
 36 28  1  6
 33 30  1  1
 30 38  1  0
 34 31  1  1
 31 39  1  0
 35 32  1  6
 32 40  1  0
 41 43  1  0
 15 19  2  0
 42 43  2  0
 16 22  2  0
 12 17  1  1
 17 19  1  0
 17 20  1  0
 18 19  1  0
 18 22  1  0
 18 23  1  0
  9 10  1  0
  9 11  1  0
 10 12  1  0
 11  5  1  1
 33 34  1  0
 33 35  1  0
 34 36  1  0
 35 37  1  0
 37 43  1  6
 20 21  2  0
 21 22  1  0
M  CHG  3   2  -1  26  -1  41  -1
M  END
>  <COMPND>  (169) 
    udp_gluA.pdb 

>  <AUTHOR>  (169) 
    GENERATED BY OPEN BABEL 3.1.1

>  <MASTER>  (169) 
        0    0    0    0    0    0    0    0   56    0   56    0

>  <minimizedAffinity>  (169) 
-8.40531

>  <CNNscore>  (169) 
0.4906057119

>  <CNNaffinity>  (169) 
4.3940176964

>  <CNN_VS>  (169) 
2.1557302475

>  <CNNaffinity_variance>  (169) 
0.1910209805

$$$$
170
     RDKit          3D

 43 45  0  0  0  0  0  0  0  0999 V2000
   22.4453   71.4958   -2.9679 P   0  0  2  0  0  0  0  0  0  0  0  0
   22.7729   73.0313   -3.3603 O   0  0  0  0  0  0  0  0  0  0  0  0
   23.5605   70.5248   -3.2236 O   0  0  0  0  0  0  0  0  0  0  0  0
   21.0549   71.1868   -3.7354 O   0  0  0  0  0  0  0  0  0  0  0  0
   20.4640   69.9101   -3.5763 C   0  0  0  0  0  0  0  0  0  0  0  0
   18.3736   70.7905   -4.3717 O   0  0  0  0  0  0  0  0  0  0  0  0
   17.0640   68.9885   -2.3644 O   0  0  0  0  0  0  0  0  0  0  0  0
   16.7484   67.6113   -4.6968 O   0  0  0  0  0  0  0  0  0  0  0  0
   18.2324   68.7639   -3.1536 C   0  0  1  0  0  0  0  0  0  0  0  0
   17.8485   68.4906   -4.5925 C   0  0  2  0  0  0  0  0  0  0  0  0
   18.9822   70.0840   -3.2691 C   0  0  1  0  0  0  0  0  0  0  0  0
   17.5329   69.8855   -5.1050 C   0  0  2  0  0  0  0  0  0  0  0  0
   16.5683   68.1588   -2.2766 H   0  0  0  0  0  0  0  0  0  0  0  0
   16.9999   66.7372   -4.3582 H   0  0  0  0  0  0  0  0  0  0  0  0
   15.8949   71.3134   -6.9090 O   0  0  0  0  0  0  0  0  0  0  0  0
   18.6722   70.3679  -10.4638 O   0  0  0  0  0  0  0  0  0  0  0  0
   17.8044   70.0285   -6.5074 N   0  0  0  0  0  0  0  0  0  0  0  0
   17.2792   70.8403   -8.6779 N   0  0  0  0  0  0  0  0  0  0  0  0
   16.9173   70.7663   -7.3264 C   0  0  0  0  0  0  0  0  0  0  0  0
   18.9385   69.4435   -7.0574 C   0  0  0  0  0  0  0  0  0  0  0  0
   19.2702   69.5228   -8.3476 C   0  0  0  0  0  0  0  0  0  0  0  0
   18.3961   70.2749   -9.2716 C   0  0  0  0  0  0  0  0  0  0  0  0
   16.6759   71.3471   -9.2683 H   0  0  0  0  0  0  0  0  0  0  0  0
   21.9898   71.6059   -1.4209 O   0  0  0  0  0  0  0  0  0  0  0  0
   20.7657   72.4037   -0.7290 P   0  0  2  0  0  0  0  0  0  0  0  0
   21.4779   73.1807    0.4995 O   0  0  0  0  0  0  0  0  0  0  0  0
   19.6129   71.5314   -0.3239 O   0  0  0  0  0  0  0  0  0  0  0  0
   20.3879   73.5663   -1.7817 O   0  0  0  0  0  0  0  0  0  0  0  0
   18.2556   74.5068   -1.3599 O   0  0  0  0  0  0  0  0  0  0  0  0
   19.2834   76.3200   -4.9270 O   0  0  0  0  0  0  0  0  0  0  0  0
   19.8162   73.4791   -4.5023 O   0  0  0  0  0  0  0  0  0  0  0  0
   19.4334   77.8109   -2.4359 O   0  0  0  0  0  0  0  0  0  0  0  0
   19.5213   75.7309   -3.6486 C   0  0  2  0  0  0  0  0  0  0  0  0
   19.0159   74.2879   -3.6479 C   0  0  2  0  0  0  0  0  0  0  0  0
   18.7730   76.5574   -2.6003 C   0  0  1  0  0  0  0  0  0  0  0  0
   19.0425   73.6995   -2.2366 C   0  0  1  0  0  0  0  0  0  0  0  0
   18.7362   75.8449   -1.2515 C   0  0  1  0  0  0  0  0  0  0  0  0
   19.7492   75.8113   -5.6093 H   0  0  0  0  0  0  0  0  0  0  0  0
   19.8041   73.8469   -5.3995 H   0  0  0  0  0  0  0  0  0  0  0  0
   19.4637   78.2746   -3.2874 H   0  0  0  0  0  0  0  0  0  0  0  0
   17.6239   75.7809    0.8126 O   0  0  0  0  0  0  0  0  0  0  0  0
   17.1165   77.5060   -0.5894 O   0  0  0  0  0  0  0  0  0  0  0  0
   17.7411   76.4859   -0.3399 C   0  0  0  0  0  0  0  0  0  0  0  0
  1  4  1  0
  1 24  1  0
  1  2  1  6
  1  3  2  0
 25 28  1  0
 25 24  1  0
 25 26  1  1
 25 27  2  0
  6 11  1  0
  6 12  1  0
 29 36  1  0
 29 37  1  0
  9  7  1  1
  7 13  1  0
 10  8  1  1
  8 14  1  0
  4  5  1  0
 36 28  1  1
 33 30  1  6
 30 38  1  0
 34 31  1  6
 31 39  1  0
 35 32  1  1
 32 40  1  0
 41 43  1  0
 15 19  2  0
 42 43  2  0
 16 22  2  0
 12 17  1  6
 17 19  1  0
 17 20  1  0
 18 19  1  0
 18 22  1  0
 18 23  1  0
  9 10  1  0
  9 11  1  0
 10 12  1  0
 11  5  1  6
 33 34  1  0
 33 35  1  0
 34 36  1  0
 35 37  1  0
 37 43  1  1
 20 21  2  0
 21 22  1  0
M  CHG  3   2  -1  26  -1  41  -1
M  END
>  <COMPND>  (170) 
    udp_gluA.pdb 

>  <AUTHOR>  (170) 
    GENERATED BY OPEN BABEL 3.1.1

>  <MASTER>  (170) 
        0    0    0    0    0    0    0    0   56    0   56    0

>  <minimizedAffinity>  (170) 
-6.83655

>  <CNNscore>  (170) 
0.4815061390

>  <CNNaffinity>  (170) 
4.4264459610

>  <CNN_VS>  (170) 
2.1313610077

>  <CNNaffinity_variance>  (170) 
0.0587888472

$$$$
171
     RDKit          3D

 43 45  0  0  0  0  0  0  0  0999 V2000
   15.8778   74.2603   -3.1793 P   0  0  2  0  0  0  0  0  0  0  0  0
   14.6511   73.2094   -3.0804 O   0  0  0  0  0  0  0  0  0  0  0  0
   15.8091   75.4069   -2.2137 O   0  0  0  0  0  0  0  0  0  0  0  0
   15.9193   74.6626   -4.7460 O   0  0  0  0  0  0  0  0  0  0  0  0
   15.7087   73.6477   -5.7104 C   0  0  0  0  0  0  0  0  0  0  0  0
   17.8678   72.6028   -5.8644 O   0  0  0  0  0  0  0  0  0  0  0  0
   17.7660   73.2499   -8.7905 O   0  0  0  0  0  0  0  0  0  0  0  0
   17.0941   70.6076   -8.7410 O   0  0  0  0  0  0  0  0  0  0  0  0
   16.7084   72.8612   -7.9137 C   0  0  1  0  0  0  0  0  0  0  0  0
   16.8064   71.3840   -7.5969 C   0  0  2  0  0  0  0  0  0  0  0  0
   16.9677   73.4965   -6.5545 C   0  0  1  0  0  0  0  0  0  0  0  0
   17.9284   71.3548   -6.5731 C   0  0  2  0  0  0  0  0  0  0  0  0
   17.6222   72.8560   -9.6656 H   0  0  0  0  0  0  0  0  0  0  0  0
   16.3498   70.6585   -9.3618 H   0  0  0  0  0  0  0  0  0  0  0  0
   20.0286   70.3380   -4.9819 O   0  0  0  0  0  0  0  0  0  0  0  0
   17.2676   67.2199   -3.0075 O   0  0  0  0  0  0  0  0  0  0  0  0
   17.7861   70.2776   -5.6348 N   0  0  0  0  0  0  0  0  0  0  0  0
   18.6517   68.7853   -4.0008 N   0  0  0  0  0  0  0  0  0  0  0  0
   18.9043   69.8425   -4.8848 C   0  0  0  0  0  0  0  0  0  0  0  0
   16.5504   69.6656   -5.4636 C   0  0  0  0  0  0  0  0  0  0  0  0
   16.3250   68.6590   -4.6170 C   0  0  0  0  0  0  0  0  0  0  0  0
   17.4407   68.1441   -3.7962 C   0  0  0  0  0  0  0  0  0  0  0  0
   19.4154   68.4637   -3.4692 H   0  0  0  0  0  0  0  0  0  0  0  0
   17.1790   73.3161   -3.0120 O   0  0  0  0  0  0  0  0  0  0  0  0
   17.8724   72.6883   -1.6934 P   0  0  2  0  0  0  0  0  0  0  0  0
   17.7640   71.0925   -1.9427 O   0  0  0  0  0  0  0  0  0  0  0  0
   17.2699   73.1544   -0.3996 O   0  0  0  0  0  0  0  0  0  0  0  0
   19.4423   73.0206   -1.8589 O   0  0  0  0  0  0  0  0  0  0  0  0
   21.3650   71.6602   -2.1072 O   0  0  0  0  0  0  0  0  0  0  0  0
   22.8012   74.7199    0.2684 O   0  0  0  0  0  0  0  0  0  0  0  0
   20.1639   73.5682    0.7708 O   0  0  0  0  0  0  0  0  0  0  0  0
   23.4789   74.6253   -2.5570 O   0  0  0  0  0  0  0  0  0  0  0  0
   21.9801   74.1268   -0.7376 C   0  0  2  0  0  0  0  0  0  0  0  0
   21.1305   73.0178   -0.1165 C   0  0  2  0  0  0  0  0  0  0  0  0
   22.8979   73.5519   -1.8189 C   0  0  1  0  0  0  0  0  0  0  0  0
   20.4112   72.2093   -1.1972 C   0  0  1  0  0  0  0  0  0  0  0  0
   22.1276   72.6563   -2.7849 C   0  0  1  0  0  0  0  0  0  0  0  0
   22.2396   75.0921    0.9665 H   0  0  0  0  0  0  0  0  0  0  0  0
   20.6133   74.0827    1.4590 H   0  0  0  0  0  0  0  0  0  0  0  0
   23.9719   75.2030   -1.9537 H   0  0  0  0  0  0  0  0  0  0  0  0
   23.1251   70.5698   -3.1760 O   0  0  0  0  0  0  0  0  0  0  0  0
   23.6941   72.2741   -4.5797 O   0  0  0  0  0  0  0  0  0  0  0  0
   23.0655   71.8490   -3.6221 C   0  0  0  0  0  0  0  0  0  0  0  0
  1  4  1  0
  1 24  1  0
  1  2  1  6
  1  3  2  0
 25 28  1  0
 25 24  1  0
 25 26  1  6
 25 27  2  0
  6 11  1  0
  6 12  1  0
 29 36  1  0
 29 37  1  0
  9  7  1  6
  7 13  1  0
 10  8  1  6
  8 14  1  0
  4  5  1  0
 36 28  1  6
 33 30  1  1
 30 38  1  0
 34 31  1  1
 31 39  1  0
 35 32  1  6
 32 40  1  0
 41 43  1  0
 15 19  2  0
 42 43  2  0
 16 22  2  0
 12 17  1  1
 17 19  1  0
 17 20  1  0
 18 19  1  0
 18 22  1  0
 18 23  1  0
  9 10  1  0
  9 11  1  0
 10 12  1  0
 11  5  1  1
 33 34  1  0
 33 35  1  0
 34 36  1  0
 35 37  1  0
 37 43  1  6
 20 21  2  0
 21 22  1  0
M  CHG  3   2  -1  26  -1  41  -1
M  END
>  <COMPND>  (171) 
    udp_gluA.pdb 

>  <AUTHOR>  (171) 
    GENERATED BY OPEN BABEL 3.1.1

>  <MASTER>  (171) 
        0    0    0    0    0    0    0    0   56    0   56    0

>  <minimizedAffinity>  (171) 
-7.04270

>  <CNNscore>  (171) 
0.4684981406

>  <CNNaffinity>  (171) 
4.1978025436

>  <CNN_VS>  (171) 
1.9666626453

>  <CNNaffinity_variance>  (171) 
0.5015451908

$$$$
172
     RDKit          3D

 43 45  0  0  0  0  0  0  0  0999 V2000
   19.1881   70.3767   -1.2677 P   0  0  2  0  0  0  0  0  0  0  0  0
   18.0896   69.1886   -1.2865 O   0  0  0  0  0  0  0  0  0  0  0  0
   20.5983   69.9317   -1.0121 O   0  0  0  0  0  0  0  0  0  0  0  0
   18.5864   71.4455   -0.2125 O   0  0  0  0  0  0  0  0  0  0  0  0
   18.4367   72.7917   -0.6247 C   0  0  0  0  0  0  0  0  0  0  0  0
   20.6378   73.0498    0.3061 O   0  0  0  0  0  0  0  0  0  0  0  0
   19.9358   75.9401    0.6861 O   0  0  0  0  0  0  0  0  0  0  0  0
   21.4736   75.9914   -1.5653 O   0  0  0  0  0  0  0  0  0  0  0  0
   19.5732   75.0538   -0.3730 C   0  0  1  0  0  0  0  0  0  0  0  0
   20.7607   74.8064   -1.2790 C   0  0  2  0  0  0  0  0  0  0  0  0
   19.3384   73.6748    0.2282 C   0  0  1  0  0  0  0  0  0  0  0  0
   21.5762   73.8151   -0.4665 C   0  0  2  0  0  0  0  0  0  0  0  0
   20.0910   76.8279    0.3263 H   0  0  0  0  0  0  0  0  0  0  0  0
   20.9120   76.5894   -2.0839 H   0  0  0  0  0  0  0  0  0  0  0  0
   21.2878   73.6028   -3.2680 O   0  0  0  0  0  0  0  0  0  0  0  0
   24.5488   70.3569   -3.5410 O   0  0  0  0  0  0  0  0  0  0  0  0
   22.3371   72.9227   -1.2944 N   0  0  0  0  0  0  0  0  0  0  0  0
   22.9115   71.9857   -3.4012 N   0  0  0  0  0  0  0  0  0  0  0  0
   22.1147   72.8937   -2.6915 C   0  0  0  0  0  0  0  0  0  0  0  0
   23.2917   72.0904   -0.7226 C   0  0  0  0  0  0  0  0  0  0  0  0
   24.0437   71.2302   -1.4121 C   0  0  0  0  0  0  0  0  0  0  0  0
   23.8731   71.1371   -2.8769 C   0  0  0  0  0  0  0  0  0  0  0  0
   22.7732   71.9460   -4.3751 H   0  0  0  0  0  0  0  0  0  0  0  0
   18.9597   71.1048   -2.6926 O   0  0  0  0  0  0  0  0  0  0  0  0
   19.3518   70.6479   -4.1930 P   0  0  2  0  0  0  0  0  0  0  0  0
   18.2106   69.5594   -4.5583 O   0  0  0  0  0  0  0  0  0  0  0  0
   20.7578   70.1410   -4.3348 O   0  0  0  0  0  0  0  0  0  0  0  0
   19.0048   71.9261   -5.1140 O   0  0  0  0  0  0  0  0  0  0  0  0
   19.7942   71.2524   -7.2429 O   0  0  0  0  0  0  0  0  0  0  0  0
   17.8146   74.7626   -8.1525 O   0  0  0  0  0  0  0  0  0  0  0  0
   19.4942   74.5846   -5.7689 O   0  0  0  0  0  0  0  0  0  0  0  0
   16.6050   72.1976   -8.7914 O   0  0  0  0  0  0  0  0  0  0  0  0
   18.0611   73.5543   -7.4335 C   0  0  2  0  0  0  0  0  0  0  0  0
   19.4531   73.6086   -6.8034 C   0  0  2  0  0  0  0  0  0  0  0  0
   17.9691   72.3890   -8.4212 C   0  0  1  0  0  0  0  0  0  0  0  0
   19.8437   72.2493   -6.2215 C   0  0  1  0  0  0  0  0  0  0  0  0
   18.4939   71.0947   -7.8064 C   0  0  1  0  0  0  0  0  0  0  0  0
   17.8680   75.5172   -7.5451 H   0  0  0  0  0  0  0  0  0  0  0  0
   19.2472   75.4496   -6.1310 H   0  0  0  0  0  0  0  0  0  0  0  0
   16.2588   73.0142   -9.1839 H   0  0  0  0  0  0  0  0  0  0  0  0
   19.4812   69.0475   -8.3857 O   0  0  0  0  0  0  0  0  0  0  0  0
   18.2512   70.1004   -9.9913 O   0  0  0  0  0  0  0  0  0  0  0  0
   18.7080   70.0562   -8.8589 C   0  0  0  0  0  0  0  0  0  0  0  0
  1  4  1  0
  1 24  1  0
  1  2  1  6
  1  3  2  0
 25 28  1  0
 25 24  1  0
 25 26  1  6
 25 27  2  0
  6 11  1  0
  6 12  1  0
 29 36  1  0
 29 37  1  0
  9  7  1  1
  7 13  1  0
 10  8  1  1
  8 14  1  0
  4  5  1  0
 36 28  1  1
 33 30  1  6
 30 38  1  0
 34 31  1  1
 31 39  1  0
 35 32  1  1
 32 40  1  0
 41 43  1  0
 15 19  2  0
 42 43  2  0
 16 22  2  0
 12 17  1  6
 17 19  1  0
 17 20  1  0
 18 19  1  0
 18 22  1  0
 18 23  1  0
  9 10  1  0
  9 11  1  0
 10 12  1  0
 11  5  1  6
 33 34  1  0
 33 35  1  0
 34 36  1  0
 35 37  1  0
 37 43  1  6
 20 21  2  0
 21 22  1  0
M  CHG  3   2  -1  26  -1  41  -1
M  END
>  <COMPND>  (172) 
    udp_gluA.pdb 

>  <AUTHOR>  (172) 
    GENERATED BY OPEN BABEL 3.1.1

>  <MASTER>  (172) 
        0    0    0    0    0    0    0    0   56    0   56    0

>  <minimizedAffinity>  (172) 
-7.51921

>  <CNNscore>  (172) 
0.4647662640

>  <CNNaffinity>  (172) 
4.0868062973

>  <CNN_VS>  (172) 
1.8994096518

>  <CNNaffinity_variance>  (172) 
0.3319905400

$$$$
173
     RDKit          3D

 43 45  0  0  0  0  0  0  0  0999 V2000
   21.5005   72.4462   -3.1413 P   0  0  2  0  0  0  0  0  0  0  0  0
   23.0400   71.9685   -2.9972 O   0  0  0  0  0  0  0  0  0  0  0  0
   21.1984   73.7951   -2.5573 O   0  0  0  0  0  0  0  0  0  0  0  0
   20.6518   71.2107   -2.5321 O   0  0  0  0  0  0  0  0  0  0  0  0
   20.0672   70.2845   -3.4292 C   0  0  0  0  0  0  0  0  0  0  0  0
   17.9648   70.9089   -4.4129 O   0  0  0  0  0  0  0  0  0  0  0  0
   16.7004   69.0217   -2.4554 O   0  0  0  0  0  0  0  0  0  0  0  0
   16.7253   67.5625   -4.7590 O   0  0  0  0  0  0  0  0  0  0  0  0
   17.9462   68.9089   -3.1438 C   0  0  1  0  0  0  0  0  0  0  0  0
   17.7116   68.5604   -4.5984 C   0  0  2  0  0  0  0  0  0  0  0  0
   18.5554   70.3007   -3.2438 C   0  0  1  0  0  0  0  0  0  0  0  0
   17.2891   69.8991   -5.1792 C   0  0  2  0  0  0  0  0  0  0  0  0
   16.2922   68.1447   -2.3793 H   0  0  0  0  0  0  0  0  0  0  0  0
   17.0419   66.7300   -4.3735 H   0  0  0  0  0  0  0  0  0  0  0  0
   15.8115   71.3737   -7.0815 O   0  0  0  0  0  0  0  0  0  0  0  0
   18.7903   70.3615  -10.4499 O   0  0  0  0  0  0  0  0  0  0  0  0
   17.6558   70.0376   -6.5602 N   0  0  0  0  0  0  0  0  0  0  0  0
   17.2960   70.8673   -8.7575 N   0  0  0  0  0  0  0  0  0  0  0  0
   16.8443   70.8004   -7.4329 C   0  0  0  0  0  0  0  0  0  0  0  0
   18.8077   69.4237   -7.0368 C   0  0  0  0  0  0  0  0  0  0  0  0
   19.2255   69.4966   -8.3021 C   0  0  0  0  0  0  0  0  0  0  0  0
   18.4342   70.2736   -9.2787 C   0  0  0  0  0  0  0  0  0  0  0  0
   16.7464   71.3912   -9.3843 H   0  0  0  0  0  0  0  0  0  0  0  0
   21.2300   72.3244   -4.7303 O   0  0  0  0  0  0  0  0  0  0  0  0
   20.5506   73.3559   -5.7734 P   0  0  2  0  0  0  0  0  0  0  0  0
   19.5372   74.2089   -4.8430 O   0  0  0  0  0  0  0  0  0  0  0  0
   19.8993   72.6972   -6.9549 O   0  0  0  0  0  0  0  0  0  0  0  0
   21.7281   74.3924   -6.1497 O   0  0  0  0  0  0  0  0  0  0  0  0
   22.6619   74.9867   -8.2435 O   0  0  0  0  0  0  0  0  0  0  0  0
   25.9443   75.2635   -5.7502 O   0  0  0  0  0  0  0  0  0  0  0  0
   24.0666   73.0413   -5.4851 O   0  0  0  0  0  0  0  0  0  0  0  0
   24.6107   77.6735   -6.6798 O   0  0  0  0  0  0  0  0  0  0  0  0
   24.5614   75.3363   -6.0969 C   0  0  2  0  0  0  0  0  0  0  0  0
   24.0791   73.9641   -6.5681 C   0  0  2  0  0  0  0  0  0  0  0  0
   24.4083   76.3678   -7.2169 C   0  0  1  0  0  0  0  0  0  0  0  0
   22.6730   74.0530   -7.1629 C   0  0  1  0  0  0  0  0  0  0  0  0
   23.0180   76.3080   -7.8431 C   0  0  1  0  0  0  0  0  0  0  0  0
   26.0660   74.6139   -5.0399 H   0  0  0  0  0  0  0  0  0  0  0  0
   24.9557   72.9801   -5.1027 H   0  0  0  0  0  0  0  0  0  0  0  0
   25.4921   77.7249   -6.2781 H   0  0  0  0  0  0  0  0  0  0  0  0
   24.2387   77.3381   -9.5608 O   0  0  0  0  0  0  0  0  0  0  0  0
   21.9648   77.4049   -9.7163 O   0  0  0  0  0  0  0  0  0  0  0  0
   22.9819   77.0692   -9.1283 C   0  0  0  0  0  0  0  0  0  0  0  0
  1  4  1  0
  1 24  1  0
  1  2  1  6
  1  3  2  0
 25 28  1  0
 25 24  1  0
 25 26  1  1
 25 27  2  0
  6 11  1  0
  6 12  1  0
 29 36  1  0
 29 37  1  0
  9  7  1  1
  7 13  1  0
 10  8  1  1
  8 14  1  0
  4  5  1  0
 36 28  1  1
 33 30  1  6
 30 38  1  0
 34 31  1  1
 31 39  1  0
 35 32  1  1
 32 40  1  0
 41 43  1  0
 15 19  2  0
 42 43  2  0
 16 22  2  0
 12 17  1  6
 17 19  1  0
 17 20  1  0
 18 19  1  0
 18 22  1  0
 18 23  1  0
  9 10  1  0
  9 11  1  0
 10 12  1  0
 11  5  1  6
 33 34  1  0
 33 35  1  0
 34 36  1  0
 35 37  1  0
 37 43  1  6
 20 21  2  0
 21 22  1  0
M  CHG  3   2  -1  26  -1  41  -1
M  END
>  <COMPND>  (173) 
    udp_gluA.pdb 

>  <AUTHOR>  (173) 
    GENERATED BY OPEN BABEL 3.1.1

>  <MASTER>  (173) 
        0    0    0    0    0    0    0    0   56    0   56    0

>  <minimizedAffinity>  (173) 
-6.93427

>  <CNNscore>  (173) 
0.4589595199

>  <CNNaffinity>  (173) 
4.3687777519

>  <CNN_VS>  (173) 
2.0050921440

>  <CNNaffinity_variance>  (173) 
0.1882892549

$$$$
174
     RDKit          3D

 43 45  0  0  0  0  0  0  0  0999 V2000
   15.8156   74.5974   -3.0479 P   0  0  2  0  0  0  0  0  0  0  0  0
   15.2607   73.0811   -2.9386 O   0  0  0  0  0  0  0  0  0  0  0  0
   15.1324   75.5882   -2.1517 O   0  0  0  0  0  0  0  0  0  0  0  0
   15.7509   74.9214   -4.6319 O   0  0  0  0  0  0  0  0  0  0  0  0
   15.5789   73.8453   -5.5357 C   0  0  0  0  0  0  0  0  0  0  0  0
   17.7278   72.7744   -5.6484 O   0  0  0  0  0  0  0  0  0  0  0  0
   17.6884   73.4196   -8.5765 O   0  0  0  0  0  0  0  0  0  0  0  0
   16.9840   70.7855   -8.5372 O   0  0  0  0  0  0  0  0  0  0  0  0
   16.6100   73.0445   -7.7192 C   0  0  1  0  0  0  0  0  0  0  0  0
   16.6844   71.5665   -7.3993 C   0  0  2  0  0  0  0  0  0  0  0  0
   16.8515   73.6781   -6.3559 C   0  0  1  0  0  0  0  0  0  0  0  0
   17.7866   71.5250   -6.3547 C   0  0  2  0  0  0  0  0  0  0  0  0
   17.5563   73.0264   -9.4538 H   0  0  0  0  0  0  0  0  0  0  0  0
   16.2521   70.8447   -9.1719 H   0  0  0  0  0  0  0  0  0  0  0  0
   19.7557   69.5863   -5.7710 O   0  0  0  0  0  0  0  0  0  0  0  0
   17.0143   67.4483   -2.7448 O   0  0  0  0  0  0  0  0  0  0  0  0
   17.6140   70.4507   -5.4183 N   0  0  0  0  0  0  0  0  0  0  0  0
   18.3881   68.5227   -4.2651 N   0  0  0  0  0  0  0  0  0  0  0  0
   18.6659   69.5303   -5.1982 C   0  0  0  0  0  0  0  0  0  0  0  0
   16.4149   70.3176   -4.7288 C   0  0  0  0  0  0  0  0  0  0  0  0
   16.1650   69.3520   -3.8422 C   0  0  0  0  0  0  0  0  0  0  0  0
   17.2112   68.3490   -3.5549 C   0  0  0  0  0  0  0  0  0  0  0  0
   19.1046   67.8688   -4.0966 H   0  0  0  0  0  0  0  0  0  0  0  0
   17.3997   74.4246   -2.7767 O   0  0  0  0  0  0  0  0  0  0  0  0
   18.2653   74.5631   -1.4184 P   0  0  2  0  0  0  0  0  0  0  0  0
   17.2817   73.9492   -0.2888 O   0  0  0  0  0  0  0  0  0  0  0  0
   18.7422   75.9575   -1.1316 O   0  0  0  0  0  0  0  0  0  0  0  0
   19.4428   73.4709   -1.5702 O   0  0  0  0  0  0  0  0  0  0  0  0
   20.4459   72.4066   -3.4330 O   0  0  0  0  0  0  0  0  0  0  0  0
   20.3497   69.3413   -0.6648 O   0  0  0  0  0  0  0  0  0  0  0  0
   18.0618   71.1319   -0.9718 O   0  0  0  0  0  0  0  0  0  0  0  0
   22.8500   70.7068   -1.2436 O   0  0  0  0  0  0  0  0  0  0  0  0
   20.4445   70.6954   -1.1070 C   0  0  2  0  0  0  0  0  0  0  0  0
   19.1709   71.0777   -1.8616 C   0  0  2  0  0  0  0  0  0  0  0  0
   21.6623   70.8082   -2.0269 C   0  0  1  0  0  0  0  0  0  0  0  0
   19.3274   72.4365   -2.5457 C   0  0  1  0  0  0  0  0  0  0  0  0
   21.6791   72.1421   -2.7678 C   0  0  1  0  0  0  0  0  0  0  0  0
   19.5826   69.2455   -0.0786 H   0  0  0  0  0  0  0  0  0  0  0  0
   17.9568   70.2730   -0.5340 H   0  0  0  0  0  0  0  0  0  0  0  0
   22.8516   69.8621   -0.7667 H   0  0  0  0  0  0  0  0  0  0  0  0
   23.7340   71.3426   -3.5676 O   0  0  0  0  0  0  0  0  0  0  0  0
   22.5351   72.6992   -4.9537 O   0  0  0  0  0  0  0  0  0  0  0  0
   22.6659   72.1136   -3.8893 C   0  0  0  0  0  0  0  0  0  0  0  0
  1  4  1  0
  1 24  1  0
  1  2  1  6
  1  3  2  0
 25 28  1  0
 25 24  1  0
 25 26  1  1
 25 27  2  0
  6 11  1  0
  6 12  1  0
 29 36  1  0
 29 37  1  0
  9  7  1  6
  7 13  1  0
 10  8  1  6
  8 14  1  0
  4  5  1  0
 36 28  1  1
 33 30  1  6
 30 38  1  0
 34 31  1  1
 31 39  1  0
 35 32  1  1
 32 40  1  0
 41 43  1  0
 15 19  2  0
 42 43  2  0
 16 22  2  0
 12 17  1  1
 17 19  1  0
 17 20  1  0
 18 19  1  0
 18 22  1  0
 18 23  1  0
  9 10  1  0
  9 11  1  0
 10 12  1  0
 11  5  1  1
 33 34  1  0
 33 35  1  0
 34 36  1  0
 35 37  1  0
 37 43  1  6
 20 21  2  0
 21 22  1  0
M  CHG  3   2  -1  26  -1  41  -1
M  END
>  <COMPND>  (174) 
    udp_gluA.pdb 

>  <AUTHOR>  (174) 
    GENERATED BY OPEN BABEL 3.1.1

>  <MASTER>  (174) 
        0    0    0    0    0    0    0    0   56    0   56    0

>  <minimizedAffinity>  (174) 
-6.44883

>  <CNNscore>  (174) 
0.4036190212

>  <CNNaffinity>  (174) 
3.9884428978

>  <CNN_VS>  (174) 
1.6098114252

>  <CNNaffinity_variance>  (174) 
0.8795530200

$$$$
175
     RDKit          3D

 43 45  0  0  0  0  0  0  0  0999 V2000
   16.4314   72.8669   -3.1063 P   0  0  2  0  0  0  0  0  0  0  0  0
   15.1266   72.2921   -3.8717 O   0  0  0  0  0  0  0  0  0  0  0  0
   16.1452   73.8936   -2.0500 O   0  0  0  0  0  0  0  0  0  0  0  0
   17.4060   73.3458   -4.3059 O   0  0  0  0  0  0  0  0  0  0  0  0
   16.8425   74.0607   -5.3902 C   0  0  0  0  0  0  0  0  0  0  0  0
   18.2629   72.4019   -6.3946 O   0  0  0  0  0  0  0  0  0  0  0  0
   17.0946   73.2595   -9.0197 O   0  0  0  0  0  0  0  0  0  0  0  0
   15.7200   70.9680   -8.4759 O   0  0  0  0  0  0  0  0  0  0  0  0
   16.4679   73.1617   -7.7405 C   0  0  1  0  0  0  0  0  0  0  0  0
   16.2250   71.7100   -7.3855 C   0  0  2  0  0  0  0  0  0  0  0  0
   17.4832   73.5818   -6.6866 C   0  0  1  0  0  0  0  0  0  0  0  0
   17.6099   71.2537   -6.9590 C   0  0  2  0  0  0  0  0  0  0  0  0
   16.4650   72.9960   -9.7095 H   0  0  0  0  0  0  0  0  0  0  0  0
   14.8370   71.2963   -8.7091 H   0  0  0  0  0  0  0  0  0  0  0  0
   19.8836   70.1451   -5.7030 O   0  0  0  0  0  0  0  0  0  0  0  0
   17.3143   67.2580   -3.1915 O   0  0  0  0  0  0  0  0  0  0  0  0
   17.5638   70.2112   -5.9732 N   0  0  0  0  0  0  0  0  0  0  0  0
   18.6018   68.7075   -4.4541 N   0  0  0  0  0  0  0  0  0  0  0  0
   18.7644   69.7245   -5.4040 C   0  0  0  0  0  0  0  0  0  0  0  0
   16.3405   69.6832   -5.5786 C   0  0  0  0  0  0  0  0  0  0  0  0
   16.2015   68.7141   -4.6719 C   0  0  0  0  0  0  0  0  0  0  0  0
   17.4067   68.1497   -4.0297 C   0  0  0  0  0  0  0  0  0  0  0  0
   19.4236   68.3512   -4.0453 H   0  0  0  0  0  0  0  0  0  0  0  0
   17.1541   71.5265   -2.5643 O   0  0  0  0  0  0  0  0  0  0  0  0
   18.4517   71.3277   -1.6207 P   0  0  2  0  0  0  0  0  0  0  0  0
   18.4629   69.7338   -1.3383 O   0  0  0  0  0  0  0  0  0  0  0  0
   18.4477   72.1752   -0.3815 O   0  0  0  0  0  0  0  0  0  0  0  0
   19.7106   71.5768   -2.5981 O   0  0  0  0  0  0  0  0  0  0  0  0
   21.4905   72.5605   -1.3843 O   0  0  0  0  0  0  0  0  0  0  0  0
   23.0332   72.4730   -5.2158 O   0  0  0  0  0  0  0  0  0  0  0  0
   20.2537   73.2458   -4.7558 O   0  0  0  0  0  0  0  0  0  0  0  0
   23.9416   70.5512   -3.2328 O   0  0  0  0  0  0  0  0  0  0  0  0
   22.2445   72.0146   -4.1178 C   0  0  2  0  0  0  0  0  0  0  0  0
   21.2296   73.0910   -3.7320 C   0  0  2  0  0  0  0  0  0  0  0  0
   23.1864   71.7268   -2.9465 C   0  0  1  0  0  0  0  0  0  0  0  0
   20.5252   72.7345   -2.4222 C   0  0  1  0  0  0  0  0  0  0  0  0
   22.4120   71.5055   -1.6503 C   0  0  1  0  0  0  0  0  0  0  0  0
   22.4559   72.6624   -5.9721 H   0  0  0  0  0  0  0  0  0  0  0  0
   20.6938   73.4718   -5.5899 H   0  0  0  0  0  0  0  0  0  0  0  0
   24.4391   70.6788   -4.0556 H   0  0  0  0  0  0  0  0  0  0  0  0
   24.2735   70.5865   -0.5585 O   0  0  0  0  0  0  0  0  0  0  0  0
   23.2440   72.3538    0.4496 O   0  0  0  0  0  0  0  0  0  0  0  0
   23.3275   71.5542   -0.4706 C   0  0  0  0  0  0  0  0  0  0  0  0
  1  4  1  0
  1 24  1  0
  1  2  1  6
  1  3  2  0
 25 28  1  0
 25 24  1  0
 25 26  1  1
 25 27  2  0
  6 11  1  0
  6 12  1  0
 29 36  1  0
 29 37  1  0
  9  7  1  6
  7 13  1  0
 10  8  1  6
  8 14  1  0
  4  5  1  0
 36 28  1  6
 33 30  1  6
 30 38  1  0
 34 31  1  6
 31 39  1  0
 35 32  1  6
 32 40  1  0
 41 43  1  0
 15 19  2  0
 42 43  2  0
 16 22  2  0
 12 17  1  1
 17 19  1  0
 17 20  1  0
 18 19  1  0
 18 22  1  0
 18 23  1  0
  9 10  1  0
  9 11  1  0
 10 12  1  0
 11  5  1  1
 33 34  1  0
 33 35  1  0
 34 36  1  0
 35 37  1  0
 37 43  1  1
 20 21  2  0
 21 22  1  0
M  CHG  3   2  -1  26  -1  41  -1
M  END
>  <COMPND>  (175) 
    udp_gluA.pdb 

>  <AUTHOR>  (175) 
    GENERATED BY OPEN BABEL 3.1.1

>  <MASTER>  (175) 
        0    0    0    0    0    0    0    0   56    0   56    0

>  <minimizedAffinity>  (175) 
-7.20776

>  <CNNscore>  (175) 
0.3844076097

>  <CNNaffinity>  (175) 
3.8934664726

>  <CNN_VS>  (175) 
1.4966781139

>  <CNNaffinity_variance>  (175) 
0.8532053828

$$$$
176
     RDKit          3D

 43 45  0  0  0  0  0  0  0  0999 V2000
   17.0361   69.0050   -3.8370 P   0  0  2  0  0  0  0  0  0  0  0  0
   16.3958   67.5188   -3.8318 O   0  0  0  0  0  0  0  0  0  0  0  0
   16.0575   70.1173   -3.5982 O   0  0  0  0  0  0  0  0  0  0  0  0
   17.8495   69.0727   -5.2341 O   0  0  0  0  0  0  0  0  0  0  0  0
   17.9146   70.3099   -5.9193 C   0  0  0  0  0  0  0  0  0  0  0  0
   15.9882   70.5329   -7.3395 O   0  0  0  0  0  0  0  0  0  0  0  0
   17.9016   70.3886   -9.6438 O   0  0  0  0  0  0  0  0  0  0  0  0
   17.3960   73.0616   -9.4556 O   0  0  0  0  0  0  0  0  0  0  0  0
   18.0730   70.9972   -8.3637 C   0  0  1  0  0  0  0  0  0  0  0  0
   17.2769   72.2826   -8.2837 C   0  0  2  0  0  0  0  0  0  0  0  0
   17.3732   70.1242   -7.3310 C   0  0  1  0  0  0  0  0  0  0  0  0
   15.8649   71.7660   -8.0659 C   0  0  2  0  0  0  0  0  0  0  0  0
   18.3403   70.9285  -10.3203 H   0  0  0  0  0  0  0  0  0  0  0  0
   18.3125   73.3668   -9.5492 H   0  0  0  0  0  0  0  0  0  0  0  0
   14.1434   73.6990   -9.1957 O   0  0  0  0  0  0  0  0  0  0  0  0
   12.8211   75.2116   -5.0475 O   0  0  0  0  0  0  0  0  0  0  0  0
   15.0591   72.6779   -7.3043 N   0  0  0  0  0  0  0  0  0  0  0  0
   13.4873   74.4512   -7.1286 N   0  0  0  0  0  0  0  0  0  0  0  0
   14.2283   73.6104   -7.9694 C   0  0  0  0  0  0  0  0  0  0  0  0
   15.0953   72.6420   -5.9156 C   0  0  0  0  0  0  0  0  0  0  0  0
   14.3831   73.4498   -5.1277 C   0  0  0  0  0  0  0  0  0  0  0  0
   13.4904   74.4537   -5.7431 C   0  0  0  0  0  0  0  0  0  0  0  0
   12.9030   75.1102   -7.5687 H   0  0  0  0  0  0  0  0  0  0  0  0
   18.2142   68.8965   -2.7355 O   0  0  0  0  0  0  0  0  0  0  0  0
   18.9568   70.0348   -1.8601 P   0  0  2  0  0  0  0  0  0  0  0  0
   19.9618   69.1818   -0.9206 O   0  0  0  0  0  0  0  0  0  0  0  0
   18.0242   70.9388   -1.1071 O   0  0  0  0  0  0  0  0  0  0  0  0
   19.9225   70.7917   -2.9075 O   0  0  0  0  0  0  0  0  0  0  0  0
   21.5091   71.9149   -1.5547 O   0  0  0  0  0  0  0  0  0  0  0  0
   22.9353   72.7007   -5.3516 O   0  0  0  0  0  0  0  0  0  0  0  0
   20.0720   72.8357   -4.7879 O   0  0  0  0  0  0  0  0  0  0  0  0
   24.2535   70.7226   -3.6782 O   0  0  0  0  0  0  0  0  0  0  0  0
   22.2808   71.9388   -4.3372 C   0  0  2  0  0  0  0  0  0  0  0  0
   21.0867   72.7257   -3.7964 C   0  0  2  0  0  0  0  0  0  0  0  0
   23.2919   71.6713   -3.2201 C   0  0  1  0  0  0  0  0  0  0  0  0
   20.5007   72.0477   -2.5571 C   0  0  1  0  0  0  0  0  0  0  0  0
   22.6108   71.1127   -1.9741 C   0  0  1  0  0  0  0  0  0  0  0  0
   22.3119   72.8829   -6.0723 H   0  0  0  0  0  0  0  0  0  0  0  0
   20.4370   73.2647   -5.5772 H   0  0  0  0  0  0  0  0  0  0  0  0
   24.6942   71.0659   -4.4711 H   0  0  0  0  0  0  0  0  0  0  0  0
   23.2007   72.1928    0.0226 O   0  0  0  0  0  0  0  0  0  0  0  0
   24.4541   70.3909   -0.5948 O   0  0  0  0  0  0  0  0  0  0  0  0
   23.5308   71.1649   -0.7980 C   0  0  0  0  0  0  0  0  0  0  0  0
  1  4  1  0
  1 24  1  0
  1  2  1  6
  1  3  2  0
 25 28  1  0
 25 24  1  0
 25 26  1  1
 25 27  2  0
  6 11  1  0
  6 12  1  0
 29 36  1  0
 29 37  1  0
  9  7  1  6
  7 13  1  0
 10  8  1  6
  8 14  1  0
  4  5  1  0
 36 28  1  6
 33 30  1  6
 30 38  1  0
 34 31  1  6
 31 39  1  0
 35 32  1  6
 32 40  1  0
 41 43  1  0
 15 19  2  0
 42 43  2  0
 16 22  2  0
 12 17  1  1
 17 19  1  0
 17 20  1  0
 18 19  1  0
 18 22  1  0
 18 23  1  0
  9 10  1  0
  9 11  1  0
 10 12  1  0
 11  5  1  1
 33 34  1  0
 33 35  1  0
 34 36  1  0
 35 37  1  0
 37 43  1  1
 20 21  2  0
 21 22  1  0
M  CHG  3   2  -1  26  -1  41  -1
M  END
>  <COMPND>  (176) 
    udp_gluA.pdb 

>  <AUTHOR>  (176) 
    GENERATED BY OPEN BABEL 3.1.1

>  <MASTER>  (176) 
        0    0    0    0    0    0    0    0   56    0   56    0

>  <minimizedAffinity>  (176) 
-8.05491

>  <CNNscore>  (176) 
0.3588736653

>  <CNNaffinity>  (176) 
4.1825890541

>  <CNN_VS>  (176) 
1.5010210276

>  <CNNaffinity_variance>  (176) 
0.1331963092

$$$$
177
     RDKit          3D

 43 45  0  0  0  0  0  0  0  0999 V2000
   18.2490   71.2755   -2.1105 P   0  0  2  0  0  0  0  0  0  0  0  0
   16.8047   72.0054   -2.1224 O   0  0  0  0  0  0  0  0  0  0  0  0
   18.3748   70.1355   -1.1429 O   0  0  0  0  0  0  0  0  0  0  0  0
   19.2969   72.4910   -1.9042 O   0  0  0  0  0  0  0  0  0  0  0  0
   19.7192   72.8038   -0.5896 C   0  0  0  0  0  0  0  0  0  0  0  0
   21.6830   71.8976   -1.6384 O   0  0  0  0  0  0  0  0  0  0  0  0
   23.0703   72.3672    0.9782 O   0  0  0  0  0  0  0  0  0  0  0  0
   23.9056   74.4820   -0.5271 O   0  0  0  0  0  0  0  0  0  0  0  0
   22.0636   73.1499    0.3359 C   0  0  1  0  0  0  0  0  0  0  0  0
   22.6546   73.9041   -0.8363 C   0  0  2  0  0  0  0  0  0  0  0  0
   21.0963   72.1972   -0.3533 C   0  0  1  0  0  0  0  0  0  0  0  0
   22.7578   72.8162   -1.8917 C   0  0  2  0  0  0  0  0  0  0  0  0
   23.7003   72.9542    1.4256 H   0  0  0  0  0  0  0  0  0  0  0  0
   23.7865   75.1683    0.1487 H   0  0  0  0  0  0  0  0  0  0  0  0
   23.8702   71.6037   -4.1870 O   0  0  0  0  0  0  0  0  0  0  0  0
   22.1919   74.8833   -6.9567 O   0  0  0  0  0  0  0  0  0  0  0  0
   22.6269   73.3320   -3.2250 N   0  0  0  0  0  0  0  0  0  0  0  0
   23.0341   73.2388   -5.5642 N   0  0  0  0  0  0  0  0  0  0  0  0
   23.2244   72.6463   -4.3089 C   0  0  0  0  0  0  0  0  0  0  0  0
   21.9123   74.5025   -3.4488 C   0  0  0  0  0  0  0  0  0  0  0  0
   21.7394   75.0551   -4.6511 C   0  0  0  0  0  0  0  0  0  0  0  0
   22.3323   74.4019   -5.8365 C   0  0  0  0  0  0  0  0  0  0  0  0
   23.4426   72.7807   -6.3339 H   0  0  0  0  0  0  0  0  0  0  0  0
   18.4635   70.8699   -3.6605 O   0  0  0  0  0  0  0  0  0  0  0  0
   19.4494   69.7889   -4.3481 P   0  0  2  0  0  0  0  0  0  0  0  0
   18.6423   68.3953   -4.1840 O   0  0  0  0  0  0  0  0  0  0  0  0
   20.8376   69.7705   -3.7767 O   0  0  0  0  0  0  0  0  0  0  0  0
   19.3792   70.1166   -5.9261 O   0  0  0  0  0  0  0  0  0  0  0  0
   17.0963   70.2562   -6.5409 O   0  0  0  0  0  0  0  0  0  0  0  0
   18.9830   70.9728  -10.1457 O   0  0  0  0  0  0  0  0  0  0  0  0
   19.9617   68.8855   -8.3513 O   0  0  0  0  0  0  0  0  0  0  0  0
   17.7840   73.1681   -8.6646 O   0  0  0  0  0  0  0  0  0  0  0  0
   18.8312   70.9991   -8.7265 C   0  0  2  0  0  0  0  0  0  0  0  0
   18.7233   69.5690   -8.1968 C   0  0  2  0  0  0  0  0  0  0  0  0
   17.5585   71.7845   -8.4016 C   0  0  1  0  0  0  0  0  0  0  0  0
   18.3312   69.5612   -6.7186 C   0  0  1  0  0  0  0  0  0  0  0  0
   17.1641   71.6245   -6.9362 C   0  0  1  0  0  0  0  0  0  0  0  0
   19.7856   70.4787  -10.3761 H   0  0  0  0  0  0  0  0  0  0  0  0
   20.2167   68.8869   -9.2869 H   0  0  0  0  0  0  0  0  0  0  0  0
   18.0360   73.2837   -9.5941 H   0  0  0  0  0  0  0  0  0  0  0  0
   15.0747   72.1381   -7.8703 O   0  0  0  0  0  0  0  0  0  0  0  0
   15.3103   72.4353   -5.6219 O   0  0  0  0  0  0  0  0  0  0  0  0
   15.7698   72.1096   -6.7062 C   0  0  0  0  0  0  0  0  0  0  0  0
  1  4  1  0
  1 24  1  0
  1  2  1  6
  1  3  2  0
 25 28  1  0
 25 24  1  0
 25 26  1  6
 25 27  2  0
  6 11  1  0
  6 12  1  0
 29 36  1  0
 29 37  1  0
  9  7  1  6
  7 13  1  0
 10  8  1  1
  8 14  1  0
  4  5  1  0
 36 28  1  1
 33 30  1  6
 30 38  1  0
 34 31  1  1
 31 39  1  0
 35 32  1  1
 32 40  1  0
 41 43  1  0
 15 19  2  0
 42 43  2  0
 16 22  2  0
 12 17  1  6
 17 19  1  0
 17 20  1  0
 18 19  1  0
 18 22  1  0
 18 23  1  0
  9 10  1  0
  9 11  1  0
 10 12  1  0
 11  5  1  6
 33 34  1  0
 33 35  1  0
 34 36  1  0
 35 37  1  0
 37 43  1  6
 20 21  2  0
 21 22  1  0
M  CHG  3   2  -1  26  -1  41  -1
M  END
>  <COMPND>  (177) 
    udp_gluA.pdb 

>  <AUTHOR>  (177) 
    GENERATED BY OPEN BABEL 3.1.1

>  <MASTER>  (177) 
        0    0    0    0    0    0    0    0   56    0   56    0

>  <minimizedAffinity>  (177) 
-7.94033

>  <CNNscore>  (177) 
0.3481902778

>  <CNNaffinity>  (177) 
4.1124162674

>  <CNN_VS>  (177) 
1.4319033623

>  <CNNaffinity_variance>  (177) 
0.3267877996

$$$$
178
     RDKit          3D

 43 45  0  0  0  0  0  0  0  0999 V2000
   21.3379   71.0135   -2.7222 P   0  0  2  0  0  0  0  0  0  0  0  0
   22.7522   70.3698   -3.1740 O   0  0  0  0  0  0  0  0  0  0  0  0
   21.2950   71.5218   -1.3110 O   0  0  0  0  0  0  0  0  0  0  0  0
   20.2549   69.8690   -3.0899 O   0  0  0  0  0  0  0  0  0  0  0  0
   19.1973   69.6221   -2.1817 C   0  0  0  0  0  0  0  0  0  0  0  0
   16.9283   68.8319   -2.1137 O   0  0  0  0  0  0  0  0  0  0  0  0
   17.3209   68.0219   -4.9740 O   0  0  0  0  0  0  0  0  0  0  0  0
   15.9276   70.3550   -5.2012 O   0  0  0  0  0  0  0  0  0  0  0  0
   17.8328   69.1589   -4.2783 C   0  0  1  0  0  0  0  0  0  0  0  0
   16.7333   70.1756   -4.0553 C   0  0  2  0  0  0  0  0  0  0  0  0
   18.1630   68.7294   -2.8554 C   0  0  1  0  0  0  0  0  0  0  0  0
   15.9694   69.5642   -2.8931 C   0  0  2  0  0  0  0  0  0  0  0  0
   17.1026   68.2717   -5.8859 H   0  0  0  0  0  0  0  0  0  0  0  0
   16.4594   70.7468   -5.9123 H   0  0  0  0  0  0  0  0  0  0  0  0
   13.5438   69.1891   -1.4959 O   0  0  0  0  0  0  0  0  0  0  0  0
   13.6922   73.4434    0.2713 O   0  0  0  0  0  0  0  0  0  0  0  0
   15.3516   70.5572   -2.0606 N   0  0  0  0  0  0  0  0  0  0  0  0
   13.6195   71.3087   -0.6179 N   0  0  0  0  0  0  0  0  0  0  0  0
   14.1326   70.2678   -1.4029 C   0  0  0  0  0  0  0  0  0  0  0  0
   15.9525   71.7999   -1.9009 C   0  0  0  0  0  0  0  0  0  0  0  0
   15.4514   72.7821   -1.1492 C   0  0  0  0  0  0  0  0  0  0  0  0
   14.1802   72.5614   -0.4288 C   0  0  0  0  0  0  0  0  0  0  0  0
   12.7706   71.1315   -0.1518 H   0  0  0  0  0  0  0  0  0  0  0  0
   21.0743   72.1395   -3.8517 O   0  0  0  0  0  0  0  0  0  0  0  0
   19.7979   73.0943   -4.1211 P   0  0  2  0  0  0  0  0  0  0  0  0
   20.4635   74.4391   -4.7284 O   0  0  0  0  0  0  0  0  0  0  0  0
   18.9339   73.3223   -2.9147 O   0  0  0  0  0  0  0  0  0  0  0  0
   19.0364   72.4165   -5.3714 O   0  0  0  0  0  0  0  0  0  0  0  0
   19.5737   71.6903   -7.5608 O   0  0  0  0  0  0  0  0  0  0  0  0
   16.0395   73.7332   -8.1963 O   0  0  0  0  0  0  0  0  0  0  0  0
   18.0725   74.8148   -6.3986 O   0  0  0  0  0  0  0  0  0  0  0  0
   16.0656   70.8263   -8.2001 O   0  0  0  0  0  0  0  0  0  0  0  0
   16.9698   72.9350   -7.4647 C   0  0  2  0  0  0  0  0  0  0  0  0
   18.2728   73.7120   -7.2752 C   0  0  2  0  0  0  0  0  0  0  0  0
   17.2250   71.6547   -8.2633 C   0  0  1  0  0  0  0  0  0  0  0  0
   19.3680   72.8121   -6.7012 C   0  0  1  0  0  0  0  0  0  0  0  0
   18.4119   70.8761   -7.7035 C   0  0  1  0  0  0  0  0  0  0  0  0
   15.8620   74.5526   -7.7079 H   0  0  0  0  0  0  0  0  0  0  0  0
   17.3786   75.3899   -6.7565 H   0  0  0  0  0  0  0  0  0  0  0  0
   15.3028   71.3102   -8.5534 H   0  0  0  0  0  0  0  0  0  0  0  0
   18.2794   70.0078   -9.8783 O   0  0  0  0  0  0  0  0  0  0  0  0
   19.6344   68.9174   -8.4038 O   0  0  0  0  0  0  0  0  0  0  0  0
   18.8565   69.8227   -8.6652 C   0  0  0  0  0  0  0  0  0  0  0  0
  1  4  1  0
  1 24  1  0
  1  2  1  6
  1  3  2  0
 25 28  1  0
 25 24  1  0
 25 26  1  6
 25 27  2  0
  6 11  1  0
  6 12  1  0
 29 36  1  0
 29 37  1  0
  9  7  1  6
  7 13  1  0
 10  8  1  6
  8 14  1  0
  4  5  1  0
 36 28  1  1
 33 30  1  6
 30 38  1  0
 34 31  1  1
 31 39  1  0
 35 32  1  1
 32 40  1  0
 41 43  1  0
 15 19  2  0
 42 43  2  0
 16 22  2  0
 12 17  1  1
 17 19  1  0
 17 20  1  0
 18 19  1  0
 18 22  1  0
 18 23  1  0
  9 10  1  0
  9 11  1  0
 10 12  1  0
 11  5  1  1
 33 34  1  0
 33 35  1  0
 34 36  1  0
 35 37  1  0
 37 43  1  6
 20 21  2  0
 21 22  1  0
M  CHG  3   2  -1  26  -1  41  -1
M  END
>  <COMPND>  (178) 
    udp_gluA.pdb 

>  <AUTHOR>  (178) 
    GENERATED BY OPEN BABEL 3.1.1

>  <MASTER>  (178) 
        0    0    0    0    0    0    0    0   56    0   56    0

>  <minimizedAffinity>  (178) 
-7.19222

>  <CNNscore>  (178) 
0.3408653736

>  <CNNaffinity>  (178) 
4.0664701462

>  <CNN_VS>  (178) 
1.3861188889

>  <CNNaffinity_variance>  (178) 
0.3893001676

$$$$
179
     RDKit          3D

 43 45  0  0  0  0  0  0  0  0999 V2000
   19.8962   71.9269   -1.3357 P   0  0  2  0  0  0  0  0  0  0  0  0
   20.3194   72.4748    0.1270 O   0  0  0  0  0  0  0  0  0  0  0  0
   19.1068   72.8926   -2.1701 O   0  0  0  0  0  0  0  0  0  0  0  0
   19.1744   70.5121   -1.0268 O   0  0  0  0  0  0  0  0  0  0  0  0
   18.7276   69.7285   -2.1180 C   0  0  0  0  0  0  0  0  0  0  0  0
   16.9700   70.6153   -3.4972 O   0  0  0  0  0  0  0  0  0  0  0  0
   15.1228   68.7975   -1.9891 O   0  0  0  0  0  0  0  0  0  0  0  0
   15.5246   67.4389   -4.3191 O   0  0  0  0  0  0  0  0  0  0  0  0
   16.4747   68.5791   -2.3931 C   0  0  1  0  0  0  0  0  0  0  0  0
   16.5407   68.3174   -3.8828 C   0  0  2  0  0  0  0  0  0  0  0  0
   17.2215   69.9000   -2.2682 C   0  0  1  0  0  0  0  0  0  0  0  0
   16.3901   69.7163   -4.4558 C   0  0  2  0  0  0  0  0  0  0  0  0
   14.6255   67.9672   -2.0603 H   0  0  0  0  0  0  0  0  0  0  0  0
   15.6650   66.5622   -3.9273 H   0  0  0  0  0  0  0  0  0  0  0  0
   15.3708   71.1687   -6.6530 O   0  0  0  0  0  0  0  0  0  0  0  0
   19.0831   70.2408   -9.2224 O   0  0  0  0  0  0  0  0  0  0  0  0
   17.0695   69.8704   -5.7110 N   0  0  0  0  0  0  0  0  0  0  0  0
   17.2203   70.7043   -7.9309 N   0  0  0  0  0  0  0  0  0  0  0  0
   16.4701   70.6201   -6.7506 C   0  0  0  0  0  0  0  0  0  0  0  0
   18.3149   69.2846   -5.9021 C   0  0  0  0  0  0  0  0  0  0  0  0
   19.0180   69.3737   -7.0328 C   0  0  0  0  0  0  0  0  0  0  0  0
   18.4624   70.1385   -8.1685 C   0  0  0  0  0  0  0  0  0  0  0  0
   16.8226   71.2195   -8.6697 H   0  0  0  0  0  0  0  0  0  0  0  0
   21.3103   71.4805   -1.9792 O   0  0  0  0  0  0  0  0  0  0  0  0
   22.5475   72.3594   -2.5363 P   0  0  2  0  0  0  0  0  0  0  0  0
   23.5258   71.2479   -3.1904 O   0  0  0  0  0  0  0  0  0  0  0  0
   23.2023   73.2268   -1.5005 O   0  0  0  0  0  0  0  0  0  0  0  0
   21.9433   73.1631   -3.7978 O   0  0  0  0  0  0  0  0  0  0  0  0
   20.2913   72.5177   -5.3674 O   0  0  0  0  0  0  0  0  0  0  0  0
   22.7456   74.9158   -7.6682 O   0  0  0  0  0  0  0  0  0  0  0  0
   23.8913   73.0066   -5.7770 O   0  0  0  0  0  0  0  0  0  0  0  0
   20.1800   75.9188   -6.7394 O   0  0  0  0  0  0  0  0  0  0  0  0
   22.0958   74.4822   -6.4733 C   0  0  2  0  0  0  0  0  0  0  0  0
   22.5193   73.0487   -6.1518 C   0  0  2  0  0  0  0  0  0  0  0  0
   20.5847   74.5515   -6.7049 C   0  0  1  0  0  0  0  0  0  0  0  0
   21.6746   72.4705   -5.0156 C   0  0  1  0  0  0  0  0  0  0  0  0
   19.8175   73.8437   -5.5919 C   0  0  1  0  0  0  0  0  0  0  0  0
   23.7072   74.8802   -7.5447 H   0  0  0  0  0  0  0  0  0  0  0  0
   24.4331   73.3723   -6.4933 H   0  0  0  0  0  0  0  0  0  0  0  0
   20.6612   76.3808   -7.4436 H   0  0  0  0  0  0  0  0  0  0  0  0
   18.2665   73.5962   -7.3339 O   0  0  0  0  0  0  0  0  0  0  0  0
   17.4617   73.4966   -5.2029 O   0  0  0  0  0  0  0  0  0  0  0  0
   18.3919   73.6286   -5.9841 C   0  0  0  0  0  0  0  0  0  0  0  0
  1  4  1  0
  1 24  1  0
  1  2  1  1
  1  3  2  0
 25 28  1  0
 25 24  1  0
 25 26  1  6
 25 27  2  0
  6 11  1  0
  6 12  1  0
 29 36  1  0
 29 37  1  0
  9  7  1  6
  7 13  1  0
 10  8  1  6
  8 14  1  0
  4  5  1  0
 36 28  1  1
 33 30  1  6
 30 38  1  0
 34 31  1  1
 31 39  1  0
 35 32  1  1
 32 40  1  0
 41 43  1  0
 15 19  2  0
 42 43  2  0
 16 22  2  0
 12 17  1  6
 17 19  1  0
 17 20  1  0
 18 19  1  0
 18 22  1  0
 18 23  1  0
  9 10  1  0
  9 11  1  0
 10 12  1  0
 11  5  1  6
 33 34  1  0
 33 35  1  0
 34 36  1  0
 35 37  1  0
 37 43  1  6
 20 21  2  0
 21 22  1  0
M  CHG  3   2  -1  26  -1  41  -1
M  END
>  <COMPND>  (179) 
    udp_gluA.pdb 

>  <AUTHOR>  (179) 
    GENERATED BY OPEN BABEL 3.1.1

>  <MASTER>  (179) 
        0    0    0    0    0    0    0    0   56    0   56    0

>  <minimizedAffinity>  (179) 
-6.80226

>  <CNNscore>  (179) 
0.3182106018

>  <CNNaffinity>  (179) 
3.9677615166

>  <CNN_VS>  (179) 
1.2625837326

>  <CNNaffinity_variance>  (179) 
0.9577906728

$$$$
180
     RDKit          3D

 43 45  0  0  0  0  0  0  0  0999 V2000
   22.1239   71.3735   -2.3711 P   0  0  2  0  0  0  0  0  0  0  0  0
   23.4945   70.5765   -2.6955 O   0  0  0  0  0  0  0  0  0  0  0  0
   21.5660   71.1414   -0.9976 O   0  0  0  0  0  0  0  0  0  0  0  0
   21.1476   70.9840   -3.6011 O   0  0  0  0  0  0  0  0  0  0  0  0
   20.4831   69.7342   -3.5673 C   0  0  0  0  0  0  0  0  0  0  0  0
   18.4277   70.7265   -4.3212 O   0  0  0  0  0  0  0  0  0  0  0  0
   17.0543   68.9257   -2.3560 O   0  0  0  0  0  0  0  0  0  0  0  0
   16.6641   67.6311   -4.7241 O   0  0  0  0  0  0  0  0  0  0  0  0
   18.2067   68.6737   -3.1602 C   0  0  1  0  0  0  0  0  0  0  0  0
   17.8020   68.4588   -4.6033 C   0  0  2  0  0  0  0  0  0  0  0  0
   19.0123   69.9630   -3.2439 C   0  0  1  0  0  0  0  0  0  0  0  0
   17.5438   69.8801   -5.0734 C   0  0  2  0  0  0  0  0  0  0  0  0
   16.5237   68.1160   -2.2880 H   0  0  0  0  0  0  0  0  0  0  0  0
   16.8797   66.7375   -4.4124 H   0  0  0  0  0  0  0  0  0  0  0  0
   15.9663   71.4411   -6.8202 O   0  0  0  0  0  0  0  0  0  0  0  0
   18.6677   70.4662  -10.4251 O   0  0  0  0  0  0  0  0  0  0  0  0
   17.8122   70.0515   -6.4732 N   0  0  0  0  0  0  0  0  0  0  0  0
   17.3127   70.9532   -8.6142 N   0  0  0  0  0  0  0  0  0  0  0  0
   16.9572   70.8567   -7.2624 C   0  0  0  0  0  0  0  0  0  0  0  0
   18.9118   69.4278   -7.0501 C   0  0  0  0  0  0  0  0  0  0  0  0
   19.2379   69.5293   -8.3401 C   0  0  0  0  0  0  0  0  0  0  0  0
   18.3958   70.3513   -9.2339 C   0  0  0  0  0  0  0  0  0  0  0  0
   16.7312   71.5068   -9.1840 H   0  0  0  0  0  0  0  0  0  0  0  0
   22.5135   72.9098   -2.6889 O   0  0  0  0  0  0  0  0  0  0  0  0
   22.9327   73.6341   -4.0721 P   0  0  2  0  0  0  0  0  0  0  0  0
   23.7123   72.4675   -4.8791 O   0  0  0  0  0  0  0  0  0  0  0  0
   23.7251   74.8963   -3.8907 O   0  0  0  0  0  0  0  0  0  0  0  0
   21.5444   73.8243   -4.8715 O   0  0  0  0  0  0  0  0  0  0  0  0
   20.5998   75.8881   -5.5481 O   0  0  0  0  0  0  0  0  0  0  0  0
   17.2485   73.4930   -5.2321 O   0  0  0  0  0  0  0  0  0  0  0  0
   19.3582   73.3613   -3.2156 O   0  0  0  0  0  0  0  0  0  0  0  0
   18.3233   74.1607   -7.8493 O   0  0  0  0  0  0  0  0  0  0  0  0
   18.6222   73.7848   -5.4883 C   0  0  2  0  0  0  0  0  0  0  0  0
   19.2675   74.3585   -4.2266 C   0  0  2  0  0  0  0  0  0  0  0  0
   18.6846   74.8037   -6.6284 C   0  0  1  0  0  0  0  0  0  0  0  0
   20.6683   74.8951   -4.5240 C   0  0  1  0  0  0  0  0  0  0  0  0
   20.0873   75.3851   -6.7799 C   0  0  1  0  0  0  0  0  0  0  0  0
   17.1839   72.8473   -4.5108 H   0  0  0  0  0  0  0  0  0  0  0  0
   18.4729   73.0162   -3.0220 H   0  0  0  0  0  0  0  0  0  0  0  0
   17.4324   73.7861   -7.7662 H   0  0  0  0  0  0  0  0  0  0  0  0
   18.8186   77.1194   -7.7201 O   0  0  0  0  0  0  0  0  0  0  0  0
   21.0395   77.0593   -8.2331 O   0  0  0  0  0  0  0  0  0  0  0  0
   20.0679   76.5961   -7.6547 C   0  0  0  0  0  0  0  0  0  0  0  0
  1  4  1  0
  1 24  1  0
  1  2  1  6
  1  3  2  0
 25 28  1  0
 25 24  1  0
 25 26  1  6
 25 27  2  0
  6 11  1  0
  6 12  1  0
 29 36  1  0
 29 37  1  0
  9  7  1  1
  7 13  1  0
 10  8  1  1
  8 14  1  0
  4  5  1  0
 36 28  1  6
 33 30  1  1
 30 38  1  0
 34 31  1  1
 31 39  1  0
 35 32  1  6
 32 40  1  0
 41 43  1  0
 15 19  2  0
 42 43  2  0
 16 22  2  0
 12 17  1  6
 17 19  1  0
 17 20  1  0
 18 19  1  0
 18 22  1  0
 18 23  1  0
  9 10  1  0
  9 11  1  0
 10 12  1  0
 11  5  1  6
 33 34  1  0
 33 35  1  0
 34 36  1  0
 35 37  1  0
 37 43  1  6
 20 21  2  0
 21 22  1  0
M  CHG  3   2  -1  26  -1  41  -1
M  END
>  <COMPND>  (180) 
    udp_gluA.pdb 

>  <AUTHOR>  (180) 
    GENERATED BY OPEN BABEL 3.1.1

>  <MASTER>  (180) 
        0    0    0    0    0    0    0    0   56    0   56    0

>  <minimizedAffinity>  (180) 
-7.20219

>  <CNNscore>  (180) 
0.3095223010

>  <CNNaffinity>  (180) 
4.0135126114

>  <CNN_VS>  (180) 
1.2422716618

>  <CNNaffinity_variance>  (180) 
0.6399863958

$$$$
181
     RDKit          3D

 43 45  0  0  0  0  0  0  0  0999 V2000
   20.4411   71.4246   -1.3898 P   0  0  2  0  0  0  0  0  0  0  0  0
   19.4217   71.4961   -0.1350 O   0  0  0  0  0  0  0  0  0  0  0  0
   20.2314   72.4783   -2.4374 O   0  0  0  0  0  0  0  0  0  0  0  0
   20.3228   69.8936   -1.8997 O   0  0  0  0  0  0  0  0  0  0  0  0
   19.7300   69.6450   -3.1612 C   0  0  0  0  0  0  0  0  0  0  0  0
   17.7252   70.5299   -4.1487 O   0  0  0  0  0  0  0  0  0  0  0  0
   16.2391   68.5570   -2.4483 O   0  0  0  0  0  0  0  0  0  0  0  0
   16.2570   67.3442   -4.8906 O   0  0  0  0  0  0  0  0  0  0  0  0
   17.5022   68.4180   -3.0994 C   0  0  1  0  0  0  0  0  0  0  0  0
   17.3067   68.2400   -4.5901 C   0  0  2  0  0  0  0  0  0  0  0  0
   18.2169   69.7607   -3.0299 C   0  0  1  0  0  0  0  0  0  0  0  0
   17.0108   69.6601   -5.0412 C   0  0  2  0  0  0  0  0  0  0  0  0
   15.7639   67.7116   -2.4800 H   0  0  0  0  0  0  0  0  0  0  0  0
   16.4937   66.4543   -4.5840 H   0  0  0  0  0  0  0  0  0  0  0  0
   15.6006   71.2431   -6.9073 O   0  0  0  0  0  0  0  0  0  0  0  0
   18.7797   70.5509  -10.1720 O   0  0  0  0  0  0  0  0  0  0  0  0
   17.4473   69.9102   -6.3858 N   0  0  0  0  0  0  0  0  0  0  0  0
   17.1848   70.8960   -8.5318 N   0  0  0  0  0  0  0  0  0  0  0  0
   16.6648   70.7197   -7.2429 C   0  0  0  0  0  0  0  0  0  0  0  0
   18.6380   69.3583   -6.8424 C   0  0  0  0  0  0  0  0  0  0  0  0
   19.1209   69.5355   -8.0737 C   0  0  0  0  0  0  0  0  0  0  0  0
   18.3638   70.3672   -9.0320 C   0  0  0  0  0  0  0  0  0  0  0  0
   16.6566   71.4540   -9.1473 H   0  0  0  0  0  0  0  0  0  0  0  0
   21.8930   71.4600   -0.6803 O   0  0  0  0  0  0  0  0  0  0  0  0
   23.3806   71.5274   -1.3097 P   0  0  2  0  0  0  0  0  0  0  0  0
   23.1167   71.3771   -2.8997 O   0  0  0  0  0  0  0  0  0  0  0  0
   24.3354   70.5168   -0.7430 O   0  0  0  0  0  0  0  0  0  0  0  0
   23.8378   73.0624   -1.1162 O   0  0  0  0  0  0  0  0  0  0  0  0
   23.2955   74.7309    0.4747 O   0  0  0  0  0  0  0  0  0  0  0  0
   23.5487   76.9399   -3.0072 O   0  0  0  0  0  0  0  0  0  0  0  0
   22.2334   74.3314   -3.0007 O   0  0  0  0  0  0  0  0  0  0  0  0
   25.6954   77.0500   -1.0500 O   0  0  0  0  0  0  0  0  0  0  0  0
   23.8765   75.8786   -2.1105 C   0  0  2  0  0  0  0  0  0  0  0  0
   22.6287   75.0402   -1.8320 C   0  0  2  0  0  0  0  0  0  0  0  0
   24.4007   76.4999   -0.8139 C   0  0  1  0  0  0  0  0  0  0  0  0
   22.8830   74.0388   -0.7044 C   0  0  1  0  0  0  0  0  0  0  0  0
   24.5078   75.4606    0.2983 C   0  0  1  0  0  0  0  0  0  0  0  0
   23.2132   76.5691   -3.8386 H   0  0  0  0  0  0  0  0  0  0  0  0
   22.0707   74.9607   -3.7204 H   0  0  0  0  0  0  0  0  0  0  0  0
   25.6412   77.7129   -1.7560 H   0  0  0  0  0  0  0  0  0  0  0  0
   24.2589   77.4035    1.5884 O   0  0  0  0  0  0  0  0  0  0  0  0
   25.1795   75.5860    2.6122 O   0  0  0  0  0  0  0  0  0  0  0  0
   24.6980   76.1210    1.6249 C   0  0  0  0  0  0  0  0  0  0  0  0
  1  4  1  0
  1 24  1  0
  1  2  1  1
  1  3  2  0
 25 28  1  0
 25 24  1  0
 25 26  1  6
 25 27  2  0
  6 11  1  0
  6 12  1  0
 29 36  1  0
 29 37  1  0
  9  7  1  1
  7 13  1  0
 10  8  1  1
  8 14  1  0
  4  5  1  0
 36 28  1  6
 33 30  1  6
 30 38  1  0
 34 31  1  6
 31 39  1  0
 35 32  1  6
 32 40  1  0
 41 43  1  0
 15 19  2  0
 42 43  2  0
 16 22  2  0
 12 17  1  6
 17 19  1  0
 17 20  1  0
 18 19  1  0
 18 22  1  0
 18 23  1  0
  9 10  1  0
  9 11  1  0
 10 12  1  0
 11  5  1  6
 33 34  1  0
 33 35  1  0
 34 36  1  0
 35 37  1  0
 37 43  1  1
 20 21  2  0
 21 22  1  0
M  CHG  3   2  -1  26  -1  41  -1
M  END
>  <COMPND>  (181) 
    udp_gluA.pdb 

>  <AUTHOR>  (181) 
    GENERATED BY OPEN BABEL 3.1.1

>  <MASTER>  (181) 
        0    0    0    0    0    0    0    0   56    0   56    0

>  <minimizedAffinity>  (181) 
-7.79293

>  <CNNscore>  (181) 
0.6619429588

>  <CNNaffinity>  (181) 
4.6235218048

>  <CNN_VS>  (181) 
3.0605077744

>  <CNNaffinity_variance>  (181) 
0.0198967867

$$$$
182
     RDKit          3D

 43 45  0  0  0  0  0  0  0  0999 V2000
   20.5127   70.5240   -1.6626 P   0  0  2  0  0  0  0  0  0  0  0  0
   20.1825   69.3126   -0.6416 O   0  0  0  0  0  0  0  0  0  0  0  0
   19.7118   71.7738   -1.4429 O   0  0  0  0  0  0  0  0  0  0  0  0
   20.3726   69.8478   -3.1259 O   0  0  0  0  0  0  0  0  0  0  0  0
   19.4714   68.7680   -3.2882 C   0  0  0  0  0  0  0  0  0  0  0  0
   17.7823   70.2474   -4.1462 O   0  0  0  0  0  0  0  0  0  0  0  0
   15.8176   68.6122   -2.5786 O   0  0  0  0  0  0  0  0  0  0  0  0
   15.4984   67.6584   -5.1132 O   0  0  0  0  0  0  0  0  0  0  0  0
   16.9933   68.1924   -3.2714 C   0  0  1  0  0  0  0  0  0  0  0  0
   16.7535   68.2052   -4.7662 C   0  0  2  0  0  0  0  0  0  0  0  0
   18.0476   69.2788   -3.1086 C   0  0  1  0  0  0  0  0  0  0  0  0
   16.8557   69.6861   -5.0894 C   0  0  2  0  0  0  0  0  0  0  0  0
   15.1294   67.9339   -2.6684 H   0  0  0  0  0  0  0  0  0  0  0  0
   15.4837   66.7144   -4.8881 H   0  0  0  0  0  0  0  0  0  0  0  0
   15.5279   71.2739   -7.0109 O   0  0  0  0  0  0  0  0  0  0  0  0
   18.8104   70.5313  -10.1601 O   0  0  0  0  0  0  0  0  0  0  0  0
   17.3410   69.9245   -6.4192 N   0  0  0  0  0  0  0  0  0  0  0  0
   17.1635   70.9017   -8.5779 N   0  0  0  0  0  0  0  0  0  0  0  0
   16.5973   70.7376   -7.3069 C   0  0  0  0  0  0  0  0  0  0  0  0
   18.5409   69.3578   -6.8317 C   0  0  0  0  0  0  0  0  0  0  0  0
   19.0679   69.5234   -8.0464 C   0  0  0  0  0  0  0  0  0  0  0  0
   18.3533   70.3580   -9.0344 C   0  0  0  0  0  0  0  0  0  0  0  0
   16.6629   71.4621   -9.2140 H   0  0  0  0  0  0  0  0  0  0  0  0
   22.1101   70.7105   -1.5000 O   0  0  0  0  0  0  0  0  0  0  0  0
   23.1573   71.6424   -2.3052 P   0  0  2  0  0  0  0  0  0  0  0  0
   24.3680   70.6250   -2.6507 O   0  0  0  0  0  0  0  0  0  0  0  0
   23.5799   72.8771   -1.5630 O   0  0  0  0  0  0  0  0  0  0  0  0
   22.4456   71.9254   -3.7251 O   0  0  0  0  0  0  0  0  0  0  0  0
   23.0420   74.0547   -4.5732 O   0  0  0  0  0  0  0  0  0  0  0  0
   20.2477   72.7983   -7.3447 O   0  0  0  0  0  0  0  0  0  0  0  0
   19.8065   72.3543   -4.4912 O   0  0  0  0  0  0  0  0  0  0  0  0
   23.0792   72.7458   -8.0007 O   0  0  0  0  0  0  0  0  0  0  0  0
   21.2939   72.6419   -6.3862 C   0  0  2  0  0  0  0  0  0  0  0  0
   20.8317   73.1798   -5.0317 C   0  0  2  0  0  0  0  0  0  0  0  0
   22.5112   73.4253   -6.8827 C   0  0  1  0  0  0  0  0  0  0  0  0
   21.9955   73.2414   -4.0415 C   0  0  1  0  0  0  0  0  0  0  0  0
   23.5748   73.5498   -5.7956 C   0  0  1  0  0  0  0  0  0  0  0  0
   19.4634   72.3089   -7.0504 H   0  0  0  0  0  0  0  0  0  0  0  0
   19.0649   72.3105   -5.1145 H   0  0  0  0  0  0  0  0  0  0  0  0
   22.4124   72.6599   -8.6998 H   0  0  0  0  0  0  0  0  0  0  0  0
   25.3700   74.1344   -7.1875 O   0  0  0  0  0  0  0  0  0  0  0  0
   24.7185   75.6679   -5.6308 O   0  0  0  0  0  0  0  0  0  0  0  0
   24.5947   74.5767   -6.1665 C   0  0  0  0  0  0  0  0  0  0  0  0
  1  4  1  0
  1 24  1  0
  1  2  1  1
  1  3  2  0
 25 28  1  0
 25 24  1  0
 25 26  1  6
 25 27  2  0
  6 11  1  0
  6 12  1  0
 29 36  1  0
 29 37  1  0
  9  7  1  1
  7 13  1  0
 10  8  1  1
  8 14  1  0
  4  5  1  0
 36 28  1  6
 33 30  1  6
 30 38  1  0
 34 31  1  1
 31 39  1  0
 35 32  1  6
 32 40  1  0
 41 43  1  0
 15 19  2  0
 42 43  2  0
 16 22  2  0
 12 17  1  6
 17 19  1  0
 17 20  1  0
 18 19  1  0
 18 22  1  0
 18 23  1  0
  9 10  1  0
  9 11  1  0
 10 12  1  0
 11  5  1  6
 33 34  1  0
 33 35  1  0
 34 36  1  0
 35 37  1  0
 37 43  1  6
 20 21  2  0
 21 22  1  0
M  CHG  3   2  -1  26  -1  41  -1
M  END
>  <COMPND>  (182) 
    udp_gluA.pdb 

>  <AUTHOR>  (182) 
    GENERATED BY OPEN BABEL 3.1.1

>  <MASTER>  (182) 
        0    0    0    0    0    0    0    0   56    0   56    0

>  <minimizedAffinity>  (182) 
-8.74699

>  <CNNscore>  (182) 
0.6467240453

>  <CNNaffinity>  (182) 
4.5309095383

>  <CNN_VS>  (182) 
2.9302482605

>  <CNNaffinity_variance>  (182) 
0.5272027254

$$$$
183
     RDKit          3D

 43 45  0  0  0  0  0  0  0  0999 V2000
   20.6212   70.8485   -1.3847 P   0  0  2  0  0  0  0  0  0  0  0  0
   20.4007   69.4004   -0.6966 O   0  0  0  0  0  0  0  0  0  0  0  0
   20.6982   72.0003   -0.4260 O   0  0  0  0  0  0  0  0  0  0  0  0
   19.4460   70.9346   -2.4936 O   0  0  0  0  0  0  0  0  0  0  0  0
   18.8510   69.7311   -2.9431 C   0  0  0  0  0  0  0  0  0  0  0  0
   17.0283   70.7009   -4.1739 O   0  0  0  0  0  0  0  0  0  0  0  0
   15.2520   68.8080   -2.6728 O   0  0  0  0  0  0  0  0  0  0  0  0
   15.5193   67.5813   -5.0936 O   0  0  0  0  0  0  0  0  0  0  0  0
   16.5788   68.6076   -3.1605 C   0  0  1  0  0  0  0  0  0  0  0  0
   16.5633   68.4299   -4.6640 C   0  0  2  0  0  0  0  0  0  0  0  0
   17.3402   69.9166   -3.0022 C   0  0  1  0  0  0  0  0  0  0  0  0
   16.3918   69.8595   -5.1487 C   0  0  2  0  0  0  0  0  0  0  0  0
   14.7460   67.9849   -2.7637 H   0  0  0  0  0  0  0  0  0  0  0  0
   15.6745   66.6833   -4.7596 H   0  0  0  0  0  0  0  0  0  0  0  0
   15.2560   71.4191   -7.2113 O   0  0  0  0  0  0  0  0  0  0  0  0
   18.8301   70.6423  -10.0159 O   0  0  0  0  0  0  0  0  0  0  0  0
   17.0041   70.0815   -6.4281 N   0  0  0  0  0  0  0  0  0  0  0  0
   17.0367   71.0299   -8.6065 N   0  0  0  0  0  0  0  0  0  0  0  0
   16.3496   70.8812   -7.3946 C   0  0  0  0  0  0  0  0  0  0  0  0
   18.2389   69.5120   -6.7142 C   0  0  0  0  0  0  0  0  0  0  0  0
   18.8815   69.6628   -7.8740 C   0  0  0  0  0  0  0  0  0  0  0  0
   18.2658   70.4828   -8.9378 C   0  0  0  0  0  0  0  0  0  0  0  0
   16.5999   71.5807   -9.2958 H   0  0  0  0  0  0  0  0  0  0  0  0
   21.9492   70.6268   -2.2792 O   0  0  0  0  0  0  0  0  0  0  0  0
   23.2959   71.5106   -2.4168 P   0  0  2  0  0  0  0  0  0  0  0  0
   24.1699   70.6865   -3.5018 O   0  0  0  0  0  0  0  0  0  0  0  0
   24.0026   71.7627   -1.1164 O   0  0  0  0  0  0  0  0  0  0  0  0
   22.8321   72.8447   -3.1962 O   0  0  0  0  0  0  0  0  0  0  0  0
   20.7349   73.2308   -4.2266 O   0  0  0  0  0  0  0  0  0  0  0  0
   23.2253   75.6620   -6.4525 O   0  0  0  0  0  0  0  0  0  0  0  0
   24.0810   72.9783   -5.6778 O   0  0  0  0  0  0  0  0  0  0  0  0
   21.4464   76.8222   -4.4674 O   0  0  0  0  0  0  0  0  0  0  0  0
   22.7736   74.9831   -5.2807 C   0  0  2  0  0  0  0  0  0  0  0  0
   22.7554   73.4760   -5.5375 C   0  0  2  0  0  0  0  0  0  0  0  0
   21.3646   75.4850   -4.9570 C   0  0  1  0  0  0  0  0  0  0  0  0
   22.0636   72.7344   -4.3929 C   0  0  1  0  0  0  0  0  0  0  0  0
   20.6943   74.6172   -3.8958 C   0  0  1  0  0  0  0  0  0  0  0  0
   24.1191   75.3591   -6.6776 H   0  0  0  0  0  0  0  0  0  0  0  0
   24.5260   73.4447   -6.4023 H   0  0  0  0  0  0  0  0  0  0  0  0
   21.8714   77.3849   -5.1334 H   0  0  0  0  0  0  0  0  0  0  0  0
   18.5114   73.7647   -3.9952 O   0  0  0  0  0  0  0  0  0  0  0  0
   18.7378   76.0052   -3.6375 O   0  0  0  0  0  0  0  0  0  0  0  0
   19.2294   74.9025   -3.8250 C   0  0  0  0  0  0  0  0  0  0  0  0
  1  4  1  0
  1 24  1  0
  1  2  1  1
  1  3  2  0
 25 28  1  0
 25 24  1  0
 25 26  1  6
 25 27  2  0
  6 11  1  0
  6 12  1  0
 29 36  1  0
 29 37  1  0
  9  7  1  6
  7 13  1  0
 10  8  1  1
  8 14  1  0
  4  5  1  0
 36 28  1  1
 33 30  1  6
 30 38  1  0
 34 31  1  1
 31 39  1  0
 35 32  1  1
 32 40  1  0
 41 43  1  0
 15 19  2  0
 42 43  2  0
 16 22  2  0
 12 17  1  6
 17 19  1  0
 17 20  1  0
 18 19  1  0
 18 22  1  0
 18 23  1  0
  9 10  1  0
  9 11  1  0
 10 12  1  0
 11  5  1  6
 33 34  1  0
 33 35  1  0
 34 36  1  0
 35 37  1  0
 37 43  1  6
 20 21  2  0
 21 22  1  0
M  CHG  3   2  -1  26  -1  41  -1
M  END
>  <COMPND>  (183) 
    udp_gluA.pdb 

>  <AUTHOR>  (183) 
    GENERATED BY OPEN BABEL 3.1.1

>  <MASTER>  (183) 
        0    0    0    0    0    0    0    0   56    0   56    0

>  <minimizedAffinity>  (183) 
-7.29953

>  <CNNscore>  (183) 
0.5859235525

>  <CNNaffinity>  (183) 
4.5449800491

>  <CNN_VS>  (183) 
2.6630108356

>  <CNNaffinity_variance>  (183) 
0.4668483138

$$$$
184
     RDKit          3D

 43 45  0  0  0  0  0  0  0  0999 V2000
   22.0099   71.7099   -2.5652 P   0  0  2  0  0  0  0  0  0  0  0  0
   23.0192   70.5537   -3.0783 O   0  0  0  0  0  0  0  0  0  0  0  0
   21.8569   71.8019   -1.0753 O   0  0  0  0  0  0  0  0  0  0  0  0
   20.6488   71.4341   -3.3956 O   0  0  0  0  0  0  0  0  0  0  0  0
   20.1292   70.1174   -3.4239 C   0  0  0  0  0  0  0  0  0  0  0  0
   18.0271   70.8241   -4.3511 O   0  0  0  0  0  0  0  0  0  0  0  0
   16.7463   68.9335   -2.4078 O   0  0  0  0  0  0  0  0  0  0  0  0
   16.6819   67.5237   -4.7411 O   0  0  0  0  0  0  0  0  0  0  0  0
   17.9742   68.7989   -3.1237 C   0  0  1  0  0  0  0  0  0  0  0  0
   17.7005   68.4886   -4.5801 C   0  0  2  0  0  0  0  0  0  0  0  0
   18.6224   70.1740   -3.2073 C   0  0  1  0  0  0  0  0  0  0  0  0
   17.3066   69.8512   -5.1242 C   0  0  2  0  0  0  0  0  0  0  0  0
   16.3136   68.0674   -2.3415 H   0  0  0  0  0  0  0  0  0  0  0  0
   16.9812   66.6742   -4.3795 H   0  0  0  0  0  0  0  0  0  0  0  0
   15.8055   71.3639   -6.9775 O   0  0  0  0  0  0  0  0  0  0  0  0
   18.7176   70.3840  -10.4131 O   0  0  0  0  0  0  0  0  0  0  0  0
   17.6498   70.0083   -6.5093 N   0  0  0  0  0  0  0  0  0  0  0  0
   17.2568   70.8736   -8.6871 N   0  0  0  0  0  0  0  0  0  0  0  0
   16.8281   70.7894   -7.3559 C   0  0  0  0  0  0  0  0  0  0  0  0
   18.7890   69.3944   -7.0155 C   0  0  0  0  0  0  0  0  0  0  0  0
   19.1848   69.4839   -8.2867 C   0  0  0  0  0  0  0  0  0  0  0  0
   18.3816   70.2806   -9.2373 C   0  0  0  0  0  0  0  0  0  0  0  0
   16.6996   71.4103   -9.2961 H   0  0  0  0  0  0  0  0  0  0  0  0
   22.5988   73.0426   -3.2652 O   0  0  0  0  0  0  0  0  0  0  0  0
   22.8270   74.5341   -2.6846 P   0  0  2  0  0  0  0  0  0  0  0  0
   23.7366   74.2839   -1.3692 O   0  0  0  0  0  0  0  0  0  0  0  0
   21.5588   75.2942   -2.4240 O   0  0  0  0  0  0  0  0  0  0  0  0
   23.8235   75.2365   -3.7411 O   0  0  0  0  0  0  0  0  0  0  0  0
   23.4391   76.8419   -5.4394 O   0  0  0  0  0  0  0  0  0  0  0  0
   26.3929   74.5083   -7.1414 O   0  0  0  0  0  0  0  0  0  0  0  0
   24.1896   73.2715   -5.6751 O   0  0  0  0  0  0  0  0  0  0  0  0
   27.0427   77.1300   -6.0665 O   0  0  0  0  0  0  0  0  0  0  0  0
   25.6837   75.1405   -6.0759 C   0  0  2  0  0  0  0  0  0  0  0  0
   24.2387   74.6416   -6.0561 C   0  0  2  0  0  0  0  0  0  0  0  0
   25.7218   76.6518   -6.3136 C   0  0  1  0  0  0  0  0  0  0  0  0
   23.3906   75.4602   -5.0817 C   0  0  1  0  0  0  0  0  0  0  0  0
   24.7561   77.3858   -5.3878 C   0  0  1  0  0  0  0  0  0  0  0  0
   26.3820   73.5469   -7.0117 H   0  0  0  0  0  0  0  0  0  0  0  0
   24.7259   72.7462   -6.2890 H   0  0  0  0  0  0  0  0  0  0  0  0
   27.6672   76.6706   -6.6493 H   0  0  0  0  0  0  0  0  0  0  0  0
   23.2914   78.9750   -6.2992 O   0  0  0  0  0  0  0  0  0  0  0  0
   25.4053   79.6719   -5.8046 O   0  0  0  0  0  0  0  0  0  0  0  0
   24.5549   78.7953   -5.8409 C   0  0  0  0  0  0  0  0  0  0  0  0
  1  4  1  0
  1 24  1  0
  1  2  1  1
  1  3  2  0
 25 28  1  0
 25 24  1  0
 25 26  1  1
 25 27  2  0
  6 11  1  0
  6 12  1  0
 29 36  1  0
 29 37  1  0
  9  7  1  1
  7 13  1  0
 10  8  1  1
  8 14  1  0
  4  5  1  0
 36 28  1  1
 33 30  1  6
 30 38  1  0
 34 31  1  1
 31 39  1  0
 35 32  1  1
 32 40  1  0
 41 43  1  0
 15 19  2  0
 42 43  2  0
 16 22  2  0
 12 17  1  6
 17 19  1  0
 17 20  1  0
 18 19  1  0
 18 22  1  0
 18 23  1  0
  9 10  1  0
  9 11  1  0
 10 12  1  0
 11  5  1  6
 33 34  1  0
 33 35  1  0
 34 36  1  0
 35 37  1  0
 37 43  1  6
 20 21  2  0
 21 22  1  0
M  CHG  3   2  -1  26  -1  41  -1
M  END
>  <COMPND>  (184) 
    udp_gluA.pdb 

>  <AUTHOR>  (184) 
    GENERATED BY OPEN BABEL 3.1.1

>  <MASTER>  (184) 
        0    0    0    0    0    0    0    0   56    0   56    0

>  <minimizedAffinity>  (184) 
-7.27053

>  <CNNscore>  (184) 
0.5681517720

>  <CNNaffinity>  (184) 
4.5091376305

>  <CNN_VS>  (184) 
2.5618746281

>  <CNNaffinity_variance>  (184) 
0.1474804878

$$$$
185
     RDKit          3D

 43 45  0  0  0  0  0  0  0  0999 V2000
   17.8596   69.2594   -4.0527 P   0  0  2  0  0  0  0  0  0  0  0  0
   18.3495   67.9275   -3.2750 O   0  0  0  0  0  0  0  0  0  0  0  0
   16.3723   69.4511   -4.1060 O   0  0  0  0  0  0  0  0  0  0  0  0
   18.6084   69.1709   -5.4843 O   0  0  0  0  0  0  0  0  0  0  0  0
   18.6972   70.3423   -6.2745 C   0  0  0  0  0  0  0  0  0  0  0  0
   16.5661   70.3900   -7.3854 O   0  0  0  0  0  0  0  0  0  0  0  0
   18.1144   70.4218   -9.9531 O   0  0  0  0  0  0  0  0  0  0  0  0
   17.4050   73.0376   -9.6526 O   0  0  0  0  0  0  0  0  0  0  0  0
   18.4219   71.0428   -8.7047 C   0  0  1  0  0  0  0  0  0  0  0  0
   17.5348   72.2503   -8.4874 C   0  0  2  0  0  0  0  0  0  0  0  0
   17.9676   70.1091   -7.5912 C   0  0  1  0  0  0  0  0  0  0  0  0
   16.2242   71.6072   -8.0671 C   0  0  2  0  0  0  0  0  0  0  0  0
   18.3956   70.9999  -10.6801 H   0  0  0  0  0  0  0  0  0  0  0  0
   18.2657   73.4250   -9.8786 H   0  0  0  0  0  0  0  0  0  0  0  0
   14.2647   73.4595   -8.9073 O   0  0  0  0  0  0  0  0  0  0  0  0
   13.3703   74.7554   -4.5754 O   0  0  0  0  0  0  0  0  0  0  0  0
   15.4641   72.4415   -7.1799 N   0  0  0  0  0  0  0  0  0  0  0  0
   13.8219   74.1039   -6.7490 N   0  0  0  0  0  0  0  0  0  0  0  0
   14.5039   73.3388   -7.7043 C   0  0  0  0  0  0  0  0  0  0  0  0
   15.6716   72.3652   -5.8081 C   0  0  0  0  0  0  0  0  0  0  0  0
   15.0137   73.1009   -4.9099 C   0  0  0  0  0  0  0  0  0  0  0  0
   13.9939   74.0638   -5.3749 C   0  0  0  0  0  0  0  0  0  0  0  0
   13.1498   74.7373   -7.0903 H   0  0  0  0  0  0  0  0  0  0  0  0
   18.6637   70.4389   -3.2944 O   0  0  0  0  0  0  0  0  0  0  0  0
   18.6586   70.9010   -1.7452 P   0  0  2  0  0  0  0  0  0  0  0  0
   19.1971   69.5883   -0.9659 O   0  0  0  0  0  0  0  0  0  0  0  0
   17.3322   71.4085   -1.2583 O   0  0  0  0  0  0  0  0  0  0  0  0
   19.8653   71.9656   -1.6316 O   0  0  0  0  0  0  0  0  0  0  0  0
   22.0947   71.2150   -1.9065 O   0  0  0  0  0  0  0  0  0  0  0  0
   22.6617   74.9002   -0.1271 O   0  0  0  0  0  0  0  0  0  0  0  0
   20.5479   73.1137    0.8081 O   0  0  0  0  0  0  0  0  0  0  0  0
   23.1540   74.5624   -2.9722 O   0  0  0  0  0  0  0  0  0  0  0  0
   22.0022   73.9381   -0.9502 C   0  0  2  0  0  0  0  0  0  0  0  0
   21.5789   72.7407   -0.0990 C   0  0  2  0  0  0  0  0  0  0  0  0
   22.9820   73.4968   -2.0398 C   0  0  1  0  0  0  0  0  0  0  0  0
   21.0778   71.5942   -0.9783 C   0  0  1  0  0  0  0  0  0  0  0  0
   22.4668   72.2714   -2.7890 C   0  0  1  0  0  0  0  0  0  0  0  0
   22.0581   75.1953    0.5728 H   0  0  0  0  0  0  0  0  0  0  0  0
   20.8589   73.8410    1.3691 H   0  0  0  0  0  0  0  0  0  0  0  0
   23.4814   75.3486   -2.5080 H   0  0  0  0  0  0  0  0  0  0  0  0
   23.7319   72.3468   -4.7628 O   0  0  0  0  0  0  0  0  0  0  0  0
   24.1982   70.6680   -3.2920 O   0  0  0  0  0  0  0  0  0  0  0  0
   23.5532   71.6559   -3.6096 C   0  0  0  0  0  0  0  0  0  0  0  0
  1  4  1  0
  1 24  1  0
  1  2  1  1
  1  3  2  0
 25 28  1  0
 25 24  1  0
 25 26  1  1
 25 27  2  0
  6 11  1  0
  6 12  1  0
 29 36  1  0
 29 37  1  0
  9  7  1  6
  7 13  1  0
 10  8  1  6
  8 14  1  0
  4  5  1  0
 36 28  1  6
 33 30  1  1
 30 38  1  0
 34 31  1  1
 31 39  1  0
 35 32  1  6
 32 40  1  0
 41 43  1  0
 15 19  2  0
 42 43  2  0
 16 22  2  0
 12 17  1  1
 17 19  1  0
 17 20  1  0
 18 19  1  0
 18 22  1  0
 18 23  1  0
  9 10  1  0
  9 11  1  0
 10 12  1  0
 11  5  1  1
 33 34  1  0
 33 35  1  0
 34 36  1  0
 35 37  1  0
 37 43  1  6
 20 21  2  0
 21 22  1  0
M  CHG  3   2  -1  26  -1  41  -1
M  END
>  <COMPND>  (185) 
    udp_gluA.pdb 

>  <AUTHOR>  (185) 
    GENERATED BY OPEN BABEL 3.1.1

>  <MASTER>  (185) 
        0    0    0    0    0    0    0    0   56    0   56    0

>  <minimizedAffinity>  (185) 
-8.43490

>  <CNNscore>  (185) 
0.5222887993

>  <CNNaffinity>  (185) 
4.4425148964

>  <CNN_VS>  (185) 
2.3202757835

>  <CNNaffinity_variance>  (185) 
0.1341285706

$$$$
186
     RDKit          3D

 43 45  0  0  0  0  0  0  0  0999 V2000
   23.0108   71.6978   -3.4555 P   0  0  2  0  0  0  0  0  0  0  0  0
   23.6294   72.3714   -4.7906 O   0  0  0  0  0  0  0  0  0  0  0  0
   23.7165   70.4600   -2.9850 O   0  0  0  0  0  0  0  0  0  0  0  0
   21.4398   71.5226   -3.8009 O   0  0  0  0  0  0  0  0  0  0  0  0
   20.8565   70.2398   -3.6644 C   0  0  0  0  0  0  0  0  0  0  0  0
   18.6753   71.0122   -4.3150 O   0  0  0  0  0  0  0  0  0  0  0  0
   17.6135   69.3215   -2.0776 O   0  0  0  0  0  0  0  0  0  0  0  0
   17.1251   67.7796   -4.2731 O   0  0  0  0  0  0  0  0  0  0  0  0
   18.7100   69.0715   -2.9573 C   0  0  1  0  0  0  0  0  0  0  0  0
   18.2028   68.6905   -4.3320 C   0  0  2  0  0  0  0  0  0  0  0  0
   19.4050   70.3984   -3.2305 C   0  0  1  0  0  0  0  0  0  0  0  0
   17.7983   70.0387   -4.9037 C   0  0  2  0  0  0  0  0  0  0  0  0
   17.1538   68.4881   -1.8884 H   0  0  0  0  0  0  0  0  0  0  0  0
   17.4337   66.9373   -3.9026 H   0  0  0  0  0  0  0  0  0  0  0  0
   15.9875   71.3485   -6.6305 O   0  0  0  0  0  0  0  0  0  0  0  0
   18.4183   70.1755  -10.3667 O   0  0  0  0  0  0  0  0  0  0  0  0
   17.9339   70.0912   -6.3319 N   0  0  0  0  0  0  0  0  0  0  0  0
   17.1994   70.7622   -8.4898 N   0  0  0  0  0  0  0  0  0  0  0  0
   16.9686   70.7753   -7.1079 C   0  0  0  0  0  0  0  0  0  0  0  0
   19.0137   69.4717   -6.9493 C   0  0  0  0  0  0  0  0  0  0  0  0
   19.2203   69.4678   -8.2677 C   0  0  0  0  0  0  0  0  0  0  0  0
   18.2578   70.1594   -9.1501 C   0  0  0  0  0  0  0  0  0  0  0  0
   16.5396   71.2303   -9.0509 H   0  0  0  0  0  0  0  0  0  0  0  0
   23.0160   72.9194   -2.3970 O   0  0  0  0  0  0  0  0  0  0  0  0
   22.2464   73.1059   -0.9875 P   0  0  2  0  0  0  0  0  0  0  0  0
   23.0631   72.1291    0.0120 O   0  0  0  0  0  0  0  0  0  0  0  0
   20.7714   72.8330   -1.0505 O   0  0  0  0  0  0  0  0  0  0  0  0
   22.6315   74.5963   -0.5050 O   0  0  0  0  0  0  0  0  0  0  0  0
   23.9040   75.8069   -2.0938 O   0  0  0  0  0  0  0  0  0  0  0  0
   24.0604   78.3083    1.1905 O   0  0  0  0  0  0  0  0  0  0  0  0
   24.3590   75.4202    1.5131 O   0  0  0  0  0  0  0  0  0  0  0  0
   22.3256   78.9510   -1.0520 O   0  0  0  0  0  0  0  0  0  0  0  0
   23.4808   77.3395    0.3167 C   0  0  2  0  0  0  0  0  0  0  0  0
   24.3739   76.0997    0.2630 C   0  0  2  0  0  0  0  0  0  0  0  0
   23.3594   77.9686   -1.0730 C   0  0  1  0  0  0  0  0  0  0  0  0
   23.9098   75.1382   -0.8320 C   0  0  1  0  0  0  0  0  0  0  0  0
   23.0169   76.9227   -2.1300 C   0  0  1  0  0  0  0  0  0  0  0  0
   24.1474   77.9308    2.0799 H   0  0  0  0  0  0  0  0  0  0  0  0
   24.6521   76.0246    2.2126 H   0  0  0  0  0  0  0  0  0  0  0  0
   22.5314   79.6227   -0.3831 H   0  0  0  0  0  0  0  0  0  0  0  0
   22.4287   78.5496   -3.7139 O   0  0  0  0  0  0  0  0  0  0  0  0
   23.9994   77.0165   -4.3317 O   0  0  0  0  0  0  0  0  0  0  0  0
   23.2229   77.4705   -3.5047 C   0  0  0  0  0  0  0  0  0  0  0  0
  1  4  1  0
  1 24  1  0
  1  2  1  6
  1  3  2  0
 25 28  1  0
 25 24  1  0
 25 26  1  1
 25 27  2  0
  6 11  1  0
  6 12  1  0
 29 36  1  0
 29 37  1  0
  9  7  1  1
  7 13  1  0
 10  8  1  1
  8 14  1  0
  4  5  1  0
 36 28  1  1
 33 30  1  1
 30 38  1  0
 34 31  1  1
 31 39  1  0
 35 32  1  1
 32 40  1  0
 41 43  1  0
 15 19  2  0
 42 43  2  0
 16 22  2  0
 12 17  1  6
 17 19  1  0
 17 20  1  0
 18 19  1  0
 18 22  1  0
 18 23  1  0
  9 10  1  0
  9 11  1  0
 10 12  1  0
 11  5  1  6
 33 34  1  0
 33 35  1  0
 34 36  1  0
 35 37  1  0
 37 43  1  6
 20 21  2  0
 21 22  1  0
M  CHG  3   2  -1  26  -1  41  -1
M  END
>  <COMPND>  (186) 
    udp_gluA.pdb 

>  <AUTHOR>  (186) 
    GENERATED BY OPEN BABEL 3.1.1

>  <MASTER>  (186) 
        0    0    0    0    0    0    0    0   56    0   56    0

>  <minimizedAffinity>  (186) 
-7.31849

>  <CNNscore>  (186) 
0.4872040749

>  <CNNaffinity>  (186) 
4.5168733597

>  <CNN_VS>  (186) 
2.2006390095

>  <CNNaffinity_variance>  (186) 
0.0150373783

$$$$
187
     RDKit          3D

 43 45  0  0  0  0  0  0  0  0999 V2000
   22.7542   71.7563   -3.2671 P   0  0  2  0  0  0  0  0  0  0  0  0
   23.4628   72.5964   -4.4549 O   0  0  0  0  0  0  0  0  0  0  0  0
   23.5327   70.5701   -2.7786 O   0  0  0  0  0  0  0  0  0  0  0  0
   21.2767   71.4378   -3.8444 O   0  0  0  0  0  0  0  0  0  0  0  0
   20.7199   70.1577   -3.6081 C   0  0  0  0  0  0  0  0  0  0  0  0
   18.5786   70.9671   -4.3412 O   0  0  0  0  0  0  0  0  0  0  0  0
   17.3967   69.2217   -2.2085 O   0  0  0  0  0  0  0  0  0  0  0  0
   17.0054   67.7481   -4.4693 O   0  0  0  0  0  0  0  0  0  0  0  0
   18.5331   68.9879   -3.0407 C   0  0  1  0  0  0  0  0  0  0  0  0
   18.0910   68.6511   -4.4490 C   0  0  2  0  0  0  0  0  0  0  0  0
   19.2501   70.3161   -3.2409 C   0  0  1  0  0  0  0  0  0  0  0  0
   17.7246   70.0186   -5.0001 C   0  0  2  0  0  0  0  0  0  0  0  0
   16.9224   68.3871   -2.0664 H   0  0  0  0  0  0  0  0  0  0  0  0
   17.2894   66.8928   -4.1091 H   0  0  0  0  0  0  0  0  0  0  0  0
   15.9875   71.3575   -6.7795 O   0  0  0  0  0  0  0  0  0  0  0  0
   18.6131   70.3096  -10.4198 O   0  0  0  0  0  0  0  0  0  0  0  0
   17.9303   70.1111   -6.4178 N   0  0  0  0  0  0  0  0  0  0  0  0
   17.2963   70.8335   -8.5910 N   0  0  0  0  0  0  0  0  0  0  0  0
   16.9972   70.8068   -7.2225 C   0  0  0  0  0  0  0  0  0  0  0  0
   19.0460   69.5189   -6.9969 C   0  0  0  0  0  0  0  0  0  0  0  0
   19.3178   69.5529   -8.3030 C   0  0  0  0  0  0  0  0  0  0  0  0
   18.3927   70.2590   -9.2135 C   0  0  0  0  0  0  0  0  0  0  0  0
   16.6601   71.3103   -9.1717 H   0  0  0  0  0  0  0  0  0  0  0  0
   22.4704   72.8841   -2.1444 O   0  0  0  0  0  0  0  0  0  0  0  0
   21.8425   72.7688   -0.6591 P   0  0  2  0  0  0  0  0  0  0  0  0
   23.0255   72.0601    0.1886 O   0  0  0  0  0  0  0  0  0  0  0  0
   20.5251   72.0512   -0.6014 O   0  0  0  0  0  0  0  0  0  0  0  0
   21.8028   74.2861   -0.1126 O   0  0  0  0  0  0  0  0  0  0  0  0
   20.6842   76.2353   -0.8599 O   0  0  0  0  0  0  0  0  0  0  0  0
   24.2815   77.7830    0.4565 O   0  0  0  0  0  0  0  0  0  0  0  0
   24.2108   75.2945   -1.0723 O   0  0  0  0  0  0  0  0  0  0  0  0
   21.8779   78.1121    2.0581 O   0  0  0  0  0  0  0  0  0  0  0  0
   23.1773   76.8781    0.4477 C   0  0  2  0  0  0  0  0  0  0  0  0
   23.1040   76.1734   -0.9071 C   0  0  2  0  0  0  0  0  0  0  0  0
   21.9018   77.6860    0.6971 C   0  0  1  0  0  0  0  0  0  0  0  0
   21.8079   75.3721   -1.0375 C   0  0  1  0  0  0  0  0  0  0  0  0
   20.6526   76.8531    0.4248 C   0  0  1  0  0  0  0  0  0  0  0  0
   25.1034   77.2919    0.2998 H   0  0  0  0  0  0  0  0  0  0  0  0
   25.0365   75.7963   -0.9905 H   0  0  0  0  0  0  0  0  0  0  0  0
   22.6678   78.6433    2.2446 H   0  0  0  0  0  0  0  0  0  0  0  0
   18.3390   76.9865    0.0625 O   0  0  0  0  0  0  0  0  0  0  0  0
   19.4340   78.9332    0.5214 O   0  0  0  0  0  0  0  0  0  0  0  0
   19.4407   77.7237    0.3486 C   0  0  0  0  0  0  0  0  0  0  0  0
  1  4  1  0
  1 24  1  0
  1  2  1  6
  1  3  2  0
 25 28  1  0
 25 24  1  0
 25 26  1  1
 25 27  2  0
  6 11  1  0
  6 12  1  0
 29 36  1  0
 29 37  1  0
  9  7  1  1
  7 13  1  0
 10  8  1  1
  8 14  1  0
  4  5  1  0
 36 28  1  1
 33 30  1  6
 30 38  1  0
 34 31  1  1
 31 39  1  0
 35 32  1  1
 32 40  1  0
 41 43  1  0
 15 19  2  0
 42 43  2  0
 16 22  2  0
 12 17  1  6
 17 19  1  0
 17 20  1  0
 18 19  1  0
 18 22  1  0
 18 23  1  0
  9 10  1  0
  9 11  1  0
 10 12  1  0
 11  5  1  6
 33 34  1  0
 33 35  1  0
 34 36  1  0
 35 37  1  0
 37 43  1  6
 20 21  2  0
 21 22  1  0
M  CHG  3   2  -1  26  -1  41  -1
M  END
>  <COMPND>  (187) 
    udp_gluA.pdb 

>  <AUTHOR>  (187) 
    GENERATED BY OPEN BABEL 3.1.1

>  <MASTER>  (187) 
        0    0    0    0    0    0    0    0   56    0   56    0

>  <minimizedAffinity>  (187) 
-7.20596

>  <CNNscore>  (187) 
0.4859140217

>  <CNNaffinity>  (187) 
4.4708547592

>  <CNN_VS>  (187) 
2.1724510193

>  <CNNaffinity_variance>  (187) 
0.0207212679

$$$$
188
     RDKit          3D

 43 45  0  0  0  0  0  0  0  0999 V2000
   23.0215   71.7516   -3.0677 P   0  0  2  0  0  0  0  0  0  0  0  0
   23.2815   73.0164   -4.0431 O   0  0  0  0  0  0  0  0  0  0  0  0
   23.7415   70.4936   -3.4559 O   0  0  0  0  0  0  0  0  0  0  0  0
   21.4088   71.6436   -2.9930 O   0  0  0  0  0  0  0  0  0  0  0  0
   20.7870   70.4665   -3.4748 C   0  0  0  0  0  0  0  0  0  0  0  0
   18.5676   71.0619   -4.1800 O   0  0  0  0  0  0  0  0  0  0  0  0
   17.5894   69.2332   -2.0143 O   0  0  0  0  0  0  0  0  0  0  0  0
   17.3055   67.7070   -4.2562 O   0  0  0  0  0  0  0  0  0  0  0  0
   18.7301   69.1001   -2.8627 C   0  0  1  0  0  0  0  0  0  0  0  0
   18.3006   68.7091   -4.2609 C   0  0  2  0  0  0  0  0  0  0  0  0
   19.3145   70.4883   -3.0853 C   0  0  1  0  0  0  0  0  0  0  0  0
   17.7976   70.0302   -4.8173 C   0  0  2  0  0  0  0  0  0  0  0  0
   17.1988   68.3588   -1.8577 H   0  0  0  0  0  0  0  0  0  0  0  0
   17.6750   66.8861   -3.8935 H   0  0  0  0  0  0  0  0  0  0  0  0
   15.9424   71.2363   -6.5723 O   0  0  0  0  0  0  0  0  0  0  0  0
   18.5704   70.3485  -10.2531 O   0  0  0  0  0  0  0  0  0  0  0  0
   17.9719   70.1280   -6.2388 N   0  0  0  0  0  0  0  0  0  0  0  0
   17.2526   70.7921   -8.4040 N   0  0  0  0  0  0  0  0  0  0  0  0
   16.9796   70.7533   -7.0303 C   0  0  0  0  0  0  0  0  0  0  0  0
   19.1154   69.6101   -6.8346 C   0  0  0  0  0  0  0  0  0  0  0  0
   19.3617   69.6546   -8.1454 C   0  0  0  0  0  0  0  0  0  0  0  0
   18.3748   70.2902   -9.0430 C   0  0  0  0  0  0  0  0  0  0  0  0
   16.5753   71.2207   -8.9757 H   0  0  0  0  0  0  0  0  0  0  0  0
   23.4148   72.3302   -1.6105 O   0  0  0  0  0  0  0  0  0  0  0  0
   22.6349   73.3495   -0.6273 P   0  0  2  0  0  0  0  0  0  0  0  0
   22.5553   72.5305    0.7667 O   0  0  0  0  0  0  0  0  0  0  0  0
   21.3056   73.8126   -1.1492 O   0  0  0  0  0  0  0  0  0  0  0  0
   23.6925   74.5342   -0.3437 O   0  0  0  0  0  0  0  0  0  0  0  0
   23.3215   76.2963    1.1947 O   0  0  0  0  0  0  0  0  0  0  0  0
   26.1213   77.9695   -1.3409 O   0  0  0  0  0  0  0  0  0  0  0  0
   23.9160   76.3806   -2.4117 O   0  0  0  0  0  0  0  0  0  0  0  0
   26.9124   77.0426    1.2984 O   0  0  0  0  0  0  0  0  0  0  0  0
   25.4727   76.9155   -0.6294 C   0  0  2  0  0  0  0  0  0  0  0  0
   24.0096   76.8289   -1.0645 C   0  0  2  0  0  0  0  0  0  0  0  0
   25.5657   77.2272    0.8660 C   0  0  1  0  0  0  0  0  0  0  0  0
   23.2272   75.8708   -0.1653 C   0  0  1  0  0  0  0  0  0  0  0  0
   24.6608   76.3101    1.6836 C   0  0  1  0  0  0  0  0  0  0  0  0
   26.0748   77.7931   -2.2938 H   0  0  0  0  0  0  0  0  0  0  0  0
   24.4105   76.9839   -2.9879 H   0  0  0  0  0  0  0  0  0  0  0  0
   27.4987   77.6207    0.7857 H   0  0  0  0  0  0  0  0  0  0  0  0
   25.5658   76.4683    3.8417 O   0  0  0  0  0  0  0  0  0  0  0  0
   23.5543   77.4796    3.4806 O   0  0  0  0  0  0  0  0  0  0  0  0
   24.5039   76.8248    3.0774 C   0  0  0  0  0  0  0  0  0  0  0  0
  1  4  1  0
  1 24  1  0
  1  2  1  6
  1  3  2  0
 25 28  1  0
 25 24  1  0
 25 26  1  1
 25 27  2  0
  6 11  1  0
  6 12  1  0
 29 36  1  0
 29 37  1  0
  9  7  1  1
  7 13  1  0
 10  8  1  1
  8 14  1  0
  4  5  1  0
 36 28  1  1
 33 30  1  6
 30 38  1  0
 34 31  1  6
 31 39  1  0
 35 32  1  1
 32 40  1  0
 41 43  1  0
 15 19  2  0
 42 43  2  0
 16 22  2  0
 12 17  1  6
 17 19  1  0
 17 20  1  0
 18 19  1  0
 18 22  1  0
 18 23  1  0
  9 10  1  0
  9 11  1  0
 10 12  1  0
 11  5  1  6
 33 34  1  0
 33 35  1  0
 34 36  1  0
 35 37  1  0
 37 43  1  1
 20 21  2  0
 21 22  1  0
M  CHG  3   2  -1  26  -1  41  -1
M  END
>  <COMPND>  (188) 
    udp_gluA.pdb 

>  <AUTHOR>  (188) 
    GENERATED BY OPEN BABEL 3.1.1

>  <MASTER>  (188) 
        0    0    0    0    0    0    0    0   56    0   56    0

>  <minimizedAffinity>  (188) 
-7.42750

>  <CNNscore>  (188) 
0.4827868342

>  <CNNaffinity>  (188) 
4.4002761841

>  <CNN_VS>  (188) 
2.1243953705

>  <CNNaffinity_variance>  (188) 
0.0935758799

$$$$
189
     RDKit          3D

 43 45  0  0  0  0  0  0  0  0999 V2000
   21.8544   71.4086   -2.0710 P   0  0  2  0  0  0  0  0  0  0  0  0
   23.4057   71.6506   -2.4633 O   0  0  0  0  0  0  0  0  0  0  0  0
   21.6297   70.4550   -0.9343 O   0  0  0  0  0  0  0  0  0  0  0  0
   21.1570   71.0058   -3.4743 O   0  0  0  0  0  0  0  0  0  0  0  0
   20.4575   69.7775   -3.5537 C   0  0  0  0  0  0  0  0  0  0  0  0
   18.4092   70.7587   -4.3407 O   0  0  0  0  0  0  0  0  0  0  0  0
   17.0214   69.0211   -2.3292 O   0  0  0  0  0  0  0  0  0  0  0  0
   16.6305   67.6624   -4.6610 O   0  0  0  0  0  0  0  0  0  0  0  0
   18.1746   68.7406   -3.1230 C   0  0  1  0  0  0  0  0  0  0  0  0
   17.7724   68.4873   -4.5605 C   0  0  2  0  0  0  0  0  0  0  0  0
   18.9871   70.0229   -3.2407 C   0  0  1  0  0  0  0  0  0  0  0  0
   17.5229   69.8961   -5.0711 C   0  0  2  0  0  0  0  0  0  0  0  0
   16.4864   68.2164   -2.2399 H   0  0  0  0  0  0  0  0  0  0  0  0
   16.8406   66.7769   -4.3238 H   0  0  0  0  0  0  0  0  0  0  0  0
   15.9187   71.3581   -6.8783 O   0  0  0  0  0  0  0  0  0  0  0  0
   18.6653   70.3284  -10.4335 O   0  0  0  0  0  0  0  0  0  0  0  0
   17.7956   70.0267   -6.4745 N   0  0  0  0  0  0  0  0  0  0  0  0
   17.2876   70.8430   -8.6475 N   0  0  0  0  0  0  0  0  0  0  0  0
   16.9262   70.7836   -7.2951 C   0  0  0  0  0  0  0  0  0  0  0  0
   18.9136   69.4109   -7.0240 C   0  0  0  0  0  0  0  0  0  0  0  0
   19.2451   69.4767   -8.3149 C   0  0  0  0  0  0  0  0  0  0  0  0
   18.3889   70.2472   -9.2405 C   0  0  0  0  0  0  0  0  0  0  0  0
   16.6964   71.3627   -9.2389 H   0  0  0  0  0  0  0  0  0  0  0  0
   21.3079   72.9074   -1.8106 O   0  0  0  0  0  0  0  0  0  0  0  0
   20.6577   73.9903   -2.8197 P   0  0  2  0  0  0  0  0  0  0  0  0
   20.9941   75.4057   -2.1099 O   0  0  0  0  0  0  0  0  0  0  0  0
   19.1995   73.7712   -3.1019 O   0  0  0  0  0  0  0  0  0  0  0  0
   21.6051   73.9540   -4.1249 O   0  0  0  0  0  0  0  0  0  0  0  0
   21.9778   75.6630   -5.7216 O   0  0  0  0  0  0  0  0  0  0  0  0
   22.5018   72.2560   -7.9989 O   0  0  0  0  0  0  0  0  0  0  0  0
   20.3236   72.4201   -6.0591 O   0  0  0  0  0  0  0  0  0  0  0  0
   24.8065   73.8051   -7.1390 O   0  0  0  0  0  0  0  0  0  0  0  0
   22.5420   73.0497   -6.8130 C   0  0  2  0  0  0  0  0  0  0  0  0
   21.1298   73.5204   -6.4641 C   0  0  2  0  0  0  0  0  0  0  0  0
   23.4529   74.2505   -7.0783 C   0  0  1  0  0  0  0  0  0  0  0  0
   21.1605   74.5560   -5.3393 C   0  0  1  0  0  0  0  0  0  0  0  0
   23.3325   75.2959   -5.9732 C   0  0  1  0  0  0  0  0  0  0  0  0
   21.9285   71.4868   -7.8541 H   0  0  0  0  0  0  0  0  0  0  0  0
   20.2998   71.7589   -6.7681 H   0  0  0  0  0  0  0  0  0  0  0  0
   24.8967   73.1391   -7.8384 H   0  0  0  0  0  0  0  0  0  0  0  0
   24.1846   76.5951   -7.7304 O   0  0  0  0  0  0  0  0  0  0  0  0
   24.2270   77.5123   -5.6433 O   0  0  0  0  0  0  0  0  0  0  0  0
   23.9572   76.5864   -6.3936 C   0  0  0  0  0  0  0  0  0  0  0  0
  1  4  1  0
  1 24  1  0
  1  2  1  6
  1  3  2  0
 25 28  1  0
 25 24  1  0
 25 26  1  1
 25 27  2  0
  6 11  1  0
  6 12  1  0
 29 36  1  0
 29 37  1  0
  9  7  1  1
  7 13  1  0
 10  8  1  1
  8 14  1  0
  4  5  1  0
 36 28  1  1
 33 30  1  6
 30 38  1  0
 34 31  1  1
 31 39  1  0
 35 32  1  1
 32 40  1  0
 41 43  1  0
 15 19  2  0
 42 43  2  0
 16 22  2  0
 12 17  1  6
 17 19  1  0
 17 20  1  0
 18 19  1  0
 18 22  1  0
 18 23  1  0
  9 10  1  0
  9 11  1  0
 10 12  1  0
 11  5  1  6
 33 34  1  0
 33 35  1  0
 34 36  1  0
 35 37  1  0
 37 43  1  6
 20 21  2  0
 21 22  1  0
M  CHG  3   2  -1  26  -1  41  -1
M  END
>  <COMPND>  (189) 
    udp_gluA.pdb 

>  <AUTHOR>  (189) 
    GENERATED BY OPEN BABEL 3.1.1

>  <MASTER>  (189) 
        0    0    0    0    0    0    0    0   56    0   56    0

>  <minimizedAffinity>  (189) 
-7.70482

>  <CNNscore>  (189) 
0.4468285143

>  <CNNaffinity>  (189) 
4.2228870392

>  <CNN_VS>  (189) 
1.8869063854

>  <CNNaffinity_variance>  (189) 
0.5812124014

$$$$
190
     RDKit          3D

 43 45  0  0  0  0  0  0  0  0999 V2000
   22.1504   71.2183   -2.3961 P   0  0  2  0  0  0  0  0  0  0  0  0
   23.5562   70.7527   -3.0487 O   0  0  0  0  0  0  0  0  0  0  0  0
   21.8553   70.6358   -1.0450 O   0  0  0  0  0  0  0  0  0  0  0  0
   21.0622   70.9013   -3.5508 O   0  0  0  0  0  0  0  0  0  0  0  0
   20.3752   69.6640   -3.5111 C   0  0  0  0  0  0  0  0  0  0  0  0
   18.3451   70.6766   -4.3054 O   0  0  0  0  0  0  0  0  0  0  0  0
   16.9201   68.9330   -2.3253 O   0  0  0  0  0  0  0  0  0  0  0  0
   16.5349   67.6040   -4.6751 O   0  0  0  0  0  0  0  0  0  0  0  0
   18.0771   68.6481   -3.1119 C   0  0  1  0  0  0  0  0  0  0  0  0
   17.6850   68.4149   -4.5555 C   0  0  2  0  0  0  0  0  0  0  0  0
   18.9049   69.9224   -3.2085 C   0  0  1  0  0  0  0  0  0  0  0  0
   17.4558   69.8319   -5.0530 C   0  0  2  0  0  0  0  0  0  0  0  0
   16.3754   68.1334   -2.2495 H   0  0  0  0  0  0  0  0  0  0  0  0
   16.7322   66.7126   -4.3457 H   0  0  0  0  0  0  0  0  0  0  0  0
   15.9496   71.4228   -6.8354 O   0  0  0  0  0  0  0  0  0  0  0  0
   18.6475   70.3046  -10.4012 O   0  0  0  0  0  0  0  0  0  0  0  0
   17.7425   69.9745   -6.4524 N   0  0  0  0  0  0  0  0  0  0  0  0
   17.2942   70.8636   -8.6099 N   0  0  0  0  0  0  0  0  0  0  0  0
   16.9234   70.7982   -7.2603 C   0  0  0  0  0  0  0  0  0  0  0  0
   18.8247   69.3049   -7.0104 C   0  0  0  0  0  0  0  0  0  0  0  0
   19.1657   69.3772   -8.2985 C   0  0  0  0  0  0  0  0  0  0  0  0
   18.3611   70.2157   -9.2112 C   0  0  0  0  0  0  0  0  0  0  0  0
   16.7376   71.4292   -9.1926 H   0  0  0  0  0  0  0  0  0  0  0  0
   22.2529   72.8312   -2.4263 O   0  0  0  0  0  0  0  0  0  0  0  0
   21.1421   73.9708   -2.1417 P   0  0  2  0  0  0  0  0  0  0  0  0
   22.0265   75.3166   -1.9777 O   0  0  0  0  0  0  0  0  0  0  0  0
   20.2423   73.6764   -0.9765 O   0  0  0  0  0  0  0  0  0  0  0  0
   20.3758   74.1561   -3.5491 O   0  0  0  0  0  0  0  0  0  0  0  0
   22.0856   74.6655   -5.1069 O   0  0  0  0  0  0  0  0  0  0  0  0
   18.7646   74.4249   -7.5525 O   0  0  0  0  0  0  0  0  0  0  0  0
   18.6022   75.7663   -4.9624 O   0  0  0  0  0  0  0  0  0  0  0  0
   20.7016   72.2577   -7.5047 O   0  0  0  0  0  0  0  0  0  0  0  0
   19.5811   74.0988   -6.4278 C   0  0  2  0  0  0  0  0  0  0  0  0
   19.8135   75.3522   -5.5836 C   0  0  2  0  0  0  0  0  0  0  0  0
   20.9124   73.5554   -6.9515 C   0  0  1  0  0  0  0  0  0  0  0  0
   20.8653   75.0968   -4.5032 C   0  0  1  0  0  0  0  0  0  0  0  0
   21.9478   73.4478   -5.8358 C   0  0  1  0  0  0  0  0  0  0  0  0
   17.9129   74.7724   -7.2441 H   0  0  0  0  0  0  0  0  0  0  0  0
   17.9302   75.9298   -5.6421 H   0  0  0  0  0  0  0  0  0  0  0  0
   20.0445   72.3123   -8.2160 H   0  0  0  0  0  0  0  0  0  0  0  0
   24.2520   73.3059   -5.4214 O   0  0  0  0  0  0  0  0  0  0  0  0
   23.5640   73.0300   -7.5777 O   0  0  0  0  0  0  0  0  0  0  0  0
   23.3153   73.2377   -6.3996 C   0  0  0  0  0  0  0  0  0  0  0  0
  1  4  1  0
  1 24  1  0
  1  2  1  6
  1  3  2  0
 25 28  1  0
 25 24  1  0
 25 26  1  1
 25 27  2  0
  6 11  1  0
  6 12  1  0
 29 36  1  0
 29 37  1  0
  9  7  1  1
  7 13  1  0
 10  8  1  1
  8 14  1  0
  4  5  1  0
 36 28  1  1
 33 30  1  6
 30 38  1  0
 34 31  1  1
 31 39  1  0
 35 32  1  1
 32 40  1  0
 41 43  1  0
 15 19  2  0
 42 43  2  0
 16 22  2  0
 12 17  1  6
 17 19  1  0
 17 20  1  0
 18 19  1  0
 18 22  1  0
 18 23  1  0
  9 10  1  0
  9 11  1  0
 10 12  1  0
 11  5  1  6
 33 34  1  0
 33 35  1  0
 34 36  1  0
 35 37  1  0
 37 43  1  6
 20 21  2  0
 21 22  1  0
M  CHG  3   2  -1  26  -1  41  -1
M  END
>  <COMPND>  (190) 
    udp_gluA.pdb 

>  <AUTHOR>  (190) 
    GENERATED BY OPEN BABEL 3.1.1

>  <MASTER>  (190) 
        0    0    0    0    0    0    0    0   56    0   56    0

>  <minimizedAffinity>  (190) 
-7.90828

>  <CNNscore>  (190) 
0.4416571558

>  <CNNaffinity>  (190) 
4.2370271683

>  <CNN_VS>  (190) 
1.8713133335

>  <CNNaffinity_variance>  (190) 
0.6907492876

$$$$
191
     RDKit          3D

 43 45  0  0  0  0  0  0  0  0999 V2000
   18.6086   70.7691   -1.9705 P   0  0  2  0  0  0  0  0  0  0  0  0
   19.0436   69.5776   -0.9655 O   0  0  0  0  0  0  0  0  0  0  0  0
   19.6468   71.1546   -2.9830 O   0  0  0  0  0  0  0  0  0  0  0  0
   18.1184   71.9521   -0.9814 O   0  0  0  0  0  0  0  0  0  0  0  0
   18.1924   73.2899   -1.4388 C   0  0  0  0  0  0  0  0  0  0  0  0
   20.1390   73.4103   -0.0339 O   0  0  0  0  0  0  0  0  0  0  0  0
   19.5897   76.3519    0.1580 O   0  0  0  0  0  0  0  0  0  0  0  0
   21.5962   76.2395   -1.6852 O   0  0  0  0  0  0  0  0  0  0  0  0
   19.4101   75.4695   -0.9500 C   0  0  1  0  0  0  0  0  0  0  0  0
   20.7495   75.1159   -1.5609 C   0  0  2  0  0  0  0  0  0  0  0  0
   18.9419   74.1255   -0.4091 C   0  0  1  0  0  0  0  0  0  0  0  0
   21.2829   74.0877   -0.5779 C   0  0  2  0  0  0  0  0  0  0  0  0
   19.8888   77.2175   -0.1628 H   0  0  0  0  0  0  0  0  0  0  0  0
   21.2132   76.8640   -2.3218 H   0  0  0  0  0  0  0  0  0  0  0  0
   22.8989   72.2418    0.8213 O   0  0  0  0  0  0  0  0  0  0  0  0
   24.5383   70.4349   -3.0891 O   0  0  0  0  0  0  0  0  0  0  0  0
   22.1417   73.1236   -1.2055 N   0  0  0  0  0  0  0  0  0  0  0  0
   23.7146   71.3443   -1.1277 N   0  0  0  0  0  0  0  0  0  0  0  0
   22.9123   72.2420   -0.4111 C   0  0  0  0  0  0  0  0  0  0  0  0
   22.2132   73.0569   -2.5916 C   0  0  0  0  0  0  0  0  0  0  0  0
   22.9826   72.1956   -3.2603 C   0  0  0  0  0  0  0  0  0  0  0  0
   23.8198   71.2405   -2.5052 C   0  0  0  0  0  0  0  0  0  0  0  0
   24.2619   70.7218   -0.5962 H   0  0  0  0  0  0  0  0  0  0  0  0
   17.2231   70.2247   -2.6005 O   0  0  0  0  0  0  0  0  0  0  0  0
   16.9412   69.2120   -3.8288 P   0  0  2  0  0  0  0  0  0  0  0  0
   15.6950   68.3253   -3.2986 O   0  0  0  0  0  0  0  0  0  0  0  0
   18.1368   68.4082   -4.2510 O   0  0  0  0  0  0  0  0  0  0  0  0
   16.3151   70.1410   -4.9897 O   0  0  0  0  0  0  0  0  0  0  0  0
   18.1853   71.3539   -5.7899 O   0  0  0  0  0  0  0  0  0  0  0  0
   15.2494   72.4678   -8.4747 O   0  0  0  0  0  0  0  0  0  0  0  0
   14.6523   72.2793   -5.6212 O   0  0  0  0  0  0  0  0  0  0  0  0
   17.2944   70.5562   -9.2587 O   0  0  0  0  0  0  0  0  0  0  0  0
   15.9243   71.5936   -7.5700 C   0  0  2  0  0  0  0  0  0  0  0  0
   15.9604   72.2259   -6.1785 C   0  0  2  0  0  0  0  0  0  0  0  0
   17.3459   71.3773   -8.0935 C   0  0  1  0  0  0  0  0  0  0  0  0
   16.8696   71.4312   -5.2400 C   0  0  1  0  0  0  0  0  0  0  0  0
   18.2247   70.6910   -7.0517 C   0  0  1  0  0  0  0  0  0  0  0  0
   14.3435   72.6199   -8.1624 H   0  0  0  0  0  0  0  0  0  0  0  0
   14.0700   72.7819   -6.2117 H   0  0  0  0  0  0  0  0  0  0  0  0
   16.7379   70.9816   -9.9296 H   0  0  0  0  0  0  0  0  0  0  0  0
   20.0117   69.7504   -8.2448 O   0  0  0  0  0  0  0  0  0  0  0  0
   20.4354   71.6573   -7.0687 O   0  0  0  0  0  0  0  0  0  0  0  0
   19.6667   70.7800   -7.4325 C   0  0  0  0  0  0  0  0  0  0  0  0
  1  4  1  0
  1 24  1  0
  1  2  1  1
  1  3  2  0
 25 28  1  0
 25 24  1  0
 25 26  1  1
 25 27  2  0
  6 11  1  0
  6 12  1  0
 29 36  1  0
 29 37  1  0
  9  7  1  1
  7 13  1  0
 10  8  1  1
  8 14  1  0
  4  5  1  0
 36 28  1  6
 33 30  1  6
 30 38  1  0
 34 31  1  1
 31 39  1  0
 35 32  1  6
 32 40  1  0
 41 43  1  0
 15 19  2  0
 42 43  2  0
 16 22  2  0
 12 17  1  6
 17 19  1  0
 17 20  1  0
 18 19  1  0
 18 22  1  0
 18 23  1  0
  9 10  1  0
  9 11  1  0
 10 12  1  0
 11  5  1  6
 33 34  1  0
 33 35  1  0
 34 36  1  0
 35 37  1  0
 37 43  1  6
 20 21  2  0
 21 22  1  0
M  CHG  3   2  -1  26  -1  41  -1
M  END
>  <COMPND>  (191) 
    udp_gluA.pdb 

>  <AUTHOR>  (191) 
    GENERATED BY OPEN BABEL 3.1.1

>  <MASTER>  (191) 
        0    0    0    0    0    0    0    0   56    0   56    0

>  <minimizedAffinity>  (191) 
-7.77455

>  <CNNscore>  (191) 
0.4280546308

>  <CNNaffinity>  (191) 
4.2045979500

>  <CNN_VS>  (191) 
1.7997976542

>  <CNNaffinity_variance>  (191) 
0.3230035305

$$$$
192
     RDKit          3D

 43 45  0  0  0  0  0  0  0  0999 V2000
   22.6517   71.4595   -1.9946 P   0  0  2  0  0  0  0  0  0  0  0  0
   23.7588   70.6545   -2.8577 O   0  0  0  0  0  0  0  0  0  0  0  0
   22.1961   70.7660   -0.7442 O   0  0  0  0  0  0  0  0  0  0  0  0
   21.4928   71.8006   -3.0709 O   0  0  0  0  0  0  0  0  0  0  0  0
   20.8130   70.7272   -3.6955 C   0  0  0  0  0  0  0  0  0  0  0  0
   18.5662   71.2393   -4.3791 O   0  0  0  0  0  0  0  0  0  0  0  0
   17.6761   69.5414   -2.0733 O   0  0  0  0  0  0  0  0  0  0  0  0
   17.3624   67.8667   -4.2025 O   0  0  0  0  0  0  0  0  0  0  0  0
   18.7970   69.3711   -2.9412 C   0  0  1  0  0  0  0  0  0  0  0  0
   18.3391   68.8822   -4.2990 C   0  0  2  0  0  0  0  0  0  0  0  0
   19.3507   70.7509   -3.2694 C   0  0  1  0  0  0  0  0  0  0  0  0
   17.7987   70.1556   -4.9269 C   0  0  2  0  0  0  0  0  0  0  0  0
   17.3051   68.6730   -1.8496 H   0  0  0  0  0  0  0  0  0  0  0  0
   17.7555   67.0775   -3.7968 H   0  0  0  0  0  0  0  0  0  0  0  0
   16.0027   71.4313   -6.6942 O   0  0  0  0  0  0  0  0  0  0  0  0
   18.4210   70.1170  -10.3912 O   0  0  0  0  0  0  0  0  0  0  0  0
   17.9351   70.1626   -6.3560 N   0  0  0  0  0  0  0  0  0  0  0  0
   17.2083   70.7746   -8.5339 N   0  0  0  0  0  0  0  0  0  0  0  0
   16.9774   70.8329   -7.1532 C   0  0  0  0  0  0  0  0  0  0  0  0
   19.0081   69.5124   -6.9534 C   0  0  0  0  0  0  0  0  0  0  0  0
   19.2149   69.4657   -8.2709 C   0  0  0  0  0  0  0  0  0  0  0  0
   18.2601   70.1402   -9.1747 C   0  0  0  0  0  0  0  0  0  0  0  0
   16.5538   71.2323   -9.1096 H   0  0  0  0  0  0  0  0  0  0  0  0
   23.3548   72.8944   -1.7507 O   0  0  0  0  0  0  0  0  0  0  0  0
   22.7408   74.3900   -1.7447 P   0  0  2  0  0  0  0  0  0  0  0  0
   23.9182   75.2705   -1.0674 O   0  0  0  0  0  0  0  0  0  0  0  0
   21.4097   74.5065   -1.0603 O   0  0  0  0  0  0  0  0  0  0  0  0
   22.7381   74.8374   -3.2946 O   0  0  0  0  0  0  0  0  0  0  0  0
   23.4388   73.5453   -5.1517 O   0  0  0  0  0  0  0  0  0  0  0  0
   24.1236   77.3909   -6.4971 O   0  0  0  0  0  0  0  0  0  0  0  0
   24.8083   76.6359   -3.7593 O   0  0  0  0  0  0  0  0  0  0  0  0
   21.8299   75.8920   -7.4683 O   0  0  0  0  0  0  0  0  0  0  0  0
   23.4568   76.3688   -5.7563 C   0  0  2  0  0  0  0  0  0  0  0  0
   24.4398   75.7185   -4.7826 C   0  0  2  0  0  0  0  0  0  0  0  0
   22.9282   75.3325   -6.7506 C   0  0  1  0  0  0  0  0  0  0  0  0
   23.8289   74.4731   -4.1386 C   0  0  1  0  0  0  0  0  0  0  0  0
   22.4530   74.0692   -6.0387 C   0  0  1  0  0  0  0  0  0  0  0  0
   24.4680   78.0610   -5.8859 H   0  0  0  0  0  0  0  0  0  0  0  0
   25.1964   77.4287   -4.1608 H   0  0  0  0  0  0  0  0  0  0  0  0
   22.1190   76.6969   -7.9259 H   0  0  0  0  0  0  0  0  0  0  0  0
   23.3013   72.8723   -7.8688 O   0  0  0  0  0  0  0  0  0  0  0  0
   21.2814   72.2135   -7.0411 O   0  0  0  0  0  0  0  0  0  0  0  0
   22.2523   72.9547   -7.0133 C   0  0  0  0  0  0  0  0  0  0  0  0
  1  4  1  0
  1 24  1  0
  1  2  1  6
  1  3  2  0
 25 28  1  0
 25 24  1  0
 25 26  1  1
 25 27  2  0
  6 11  1  0
  6 12  1  0
 29 36  1  0
 29 37  1  0
  9  7  1  1
  7 13  1  0
 10  8  1  1
  8 14  1  0
  4  5  1  0
 36 28  1  6
 33 30  1  6
 30 38  1  0
 34 31  1  1
 31 39  1  0
 35 32  1  1
 32 40  1  0
 41 43  1  0
 15 19  2  0
 42 43  2  0
 16 22  2  0
 12 17  1  6
 17 19  1  0
 17 20  1  0
 18 19  1  0
 18 22  1  0
 18 23  1  0
  9 10  1  0
  9 11  1  0
 10 12  1  0
 11  5  1  6
 33 34  1  0
 33 35  1  0
 34 36  1  0
 35 37  1  0
 37 43  1  6
 20 21  2  0
 21 22  1  0
M  CHG  3   2  -1  26  -1  41  -1
M  END
>  <COMPND>  (192) 
    udp_gluA.pdb 

>  <AUTHOR>  (192) 
    GENERATED BY OPEN BABEL 3.1.1

>  <MASTER>  (192) 
        0    0    0    0    0    0    0    0   56    0   56    0

>  <minimizedAffinity>  (192) 
-7.27825

>  <CNNscore>  (192) 
0.4130086899

>  <CNNaffinity>  (192) 
4.2107667923

>  <CNN_VS>  (192) 
1.7390832901

>  <CNNaffinity_variance>  (192) 
0.3808919787

$$$$
193
     RDKit          3D

 43 45  0  0  0  0  0  0  0  0999 V2000
   17.1880   69.7618   -3.4685 P   0  0  2  0  0  0  0  0  0  0  0  0
   17.2823   68.3322   -2.7160 O   0  0  0  0  0  0  0  0  0  0  0  0
   15.8638   70.4567   -3.3449 O   0  0  0  0  0  0  0  0  0  0  0  0
   17.6742   69.4393   -4.9777 O   0  0  0  0  0  0  0  0  0  0  0  0
   18.0081   70.5223   -5.8264 C   0  0  0  0  0  0  0  0  0  0  0  0
   16.0607   70.6237   -7.2317 O   0  0  0  0  0  0  0  0  0  0  0  0
   17.9505   70.4043   -9.5494 O   0  0  0  0  0  0  0  0  0  0  0  0
   17.3814   73.0705   -9.4951 O   0  0  0  0  0  0  0  0  0  0  0  0
   18.1215   71.0835   -8.3052 C   0  0  1  0  0  0  0  0  0  0  0  0
   17.2949   72.3517   -8.2825 C   0  0  2  0  0  0  0  0  0  0  0  0
   17.4553   70.2495   -7.2194 C   0  0  1  0  0  0  0  0  0  0  0  0
   15.8987   71.8135   -8.0200 C   0  0  2  0  0  0  0  0  0  0  0  0
   18.3681   70.9182  -10.2588 H   0  0  0  0  0  0  0  0  0  0  0  0
   18.2890   73.3923   -9.6162 H   0  0  0  0  0  0  0  0  0  0  0  0
   14.1491   73.6718   -9.2293 O   0  0  0  0  0  0  0  0  0  0  0  0
   12.8040   75.3378   -5.1478 O   0  0  0  0  0  0  0  0  0  0  0  0
   15.0795   72.7447   -7.2971 N   0  0  0  0  0  0  0  0  0  0  0  0
   13.4816   74.5005   -7.1954 N   0  0  0  0  0  0  0  0  0  0  0  0
   14.2351   73.6361   -8.0004 C   0  0  0  0  0  0  0  0  0  0  0  0
   15.1159   72.7678   -5.9082 C   0  0  0  0  0  0  0  0  0  0  0  0
   14.3917   73.5974   -5.1545 C   0  0  0  0  0  0  0  0  0  0  0  0
   13.4844   74.5612   -5.8112 C   0  0  0  0  0  0  0  0  0  0  0  0
   12.8878   75.1318   -7.6625 H   0  0  0  0  0  0  0  0  0  0  0  0
   18.4380   70.5799   -2.8511 O   0  0  0  0  0  0  0  0  0  0  0  0
   19.8413   70.0671   -2.2335 P   0  0  2  0  0  0  0  0  0  0  0  0
   20.4032   69.0652   -3.3741 O   0  0  0  0  0  0  0  0  0  0  0  0
   19.7249   69.4490   -0.8703 O   0  0  0  0  0  0  0  0  0  0  0  0
   20.8139   71.3521   -2.3052 O   0  0  0  0  0  0  0  0  0  0  0  0
   22.5481   71.5051   -3.9109 O   0  0  0  0  0  0  0  0  0  0  0  0
   23.7755   74.2558   -1.0833 O   0  0  0  0  0  0  0  0  0  0  0  0
   22.6716   71.6790   -0.2611 O   0  0  0  0  0  0  0  0  0  0  0  0
   22.6075   75.1594   -3.5873 O   0  0  0  0  0  0  0  0  0  0  0  0
   22.8318   73.5065   -1.8488 C   0  0  2  0  0  0  0  0  0  0  0  0
   23.0376   72.0129   -1.5949 C   0  0  2  0  0  0  0  0  0  0  0  0
   23.0577   73.8312   -3.3271 C   0  0  1  0  0  0  0  0  0  0  0  0
   22.2051   71.1733   -2.5649 C   0  0  1  0  0  0  0  0  0  0  0  0
   22.2916   72.8705   -4.2319 C   0  0  1  0  0  0  0  0  0  0  0  0
   23.6510   74.0654   -0.1401 H   0  0  0  0  0  0  0  0  0  0  0  0
   23.1958   72.2082    0.3597 H   0  0  0  0  0  0  0  0  0  0  0  0
   23.0872   75.7809   -3.0176 H   0  0  0  0  0  0  0  0  0  0  0  0
   24.0873   73.2878   -5.6819 O   0  0  0  0  0  0  0  0  0  0  0  0
   22.0712   72.8099   -6.6338 O   0  0  0  0  0  0  0  0  0  0  0  0
   22.7676   72.9783   -5.6440 C   0  0  0  0  0  0  0  0  0  0  0  0
  1  4  1  0
  1 24  1  0
  1  2  1  1
  1  3  2  0
 25 28  1  0
 25 24  1  0
 25 26  1  6
 25 27  2  0
  6 11  1  0
  6 12  1  0
 29 36  1  0
 29 37  1  0
  9  7  1  6
  7 13  1  0
 10  8  1  6
  8 14  1  0
  4  5  1  0
 36 28  1  6
 33 30  1  1
 30 38  1  0
 34 31  1  1
 31 39  1  0
 35 32  1  1
 32 40  1  0
 41 43  1  0
 15 19  2  0
 42 43  2  0
 16 22  2  0
 12 17  1  1
 17 19  1  0
 17 20  1  0
 18 19  1  0
 18 22  1  0
 18 23  1  0
  9 10  1  0
  9 11  1  0
 10 12  1  0
 11  5  1  1
 33 34  1  0
 33 35  1  0
 34 36  1  0
 35 37  1  0
 37 43  1  6
 20 21  2  0
 21 22  1  0
M  CHG  3   2  -1  26  -1  41  -1
M  END
>  <COMPND>  (193) 
    udp_gluA.pdb 

>  <AUTHOR>  (193) 
    GENERATED BY OPEN BABEL 3.1.1

>  <MASTER>  (193) 
        0    0    0    0    0    0    0    0   56    0   56    0

>  <minimizedAffinity>  (193) 
-7.59893

>  <CNNscore>  (193) 
0.3988383412

>  <CNNaffinity>  (193) 
4.2294378281

>  <CNN_VS>  (193) 
1.6868619919

>  <CNNaffinity_variance>  (193) 
0.1552938074

$$$$
194
     RDKit          3D

 43 45  0  0  0  0  0  0  0  0999 V2000
   17.8106   68.5831   -3.1401 P   0  0  2  0  0  0  0  0  0  0  0  0
   19.3702   68.4397   -3.5475 O   0  0  0  0  0  0  0  0  0  0  0  0
   17.1221   67.2926   -2.8050 O   0  0  0  0  0  0  0  0  0  0  0  0
   17.1662   69.4269   -4.3610 O   0  0  0  0  0  0  0  0  0  0  0  0
   15.9501   70.1169   -4.1382 C   0  0  0  0  0  0  0  0  0  0  0  0
   17.3354   71.8949   -4.9734 O   0  0  0  0  0  0  0  0  0  0  0  0
   15.1960   73.7629   -4.0118 O   0  0  0  0  0  0  0  0  0  0  0  0
   14.7036   73.6212   -6.6902 O   0  0  0  0  0  0  0  0  0  0  0  0
   15.0685   72.4613   -4.5845 C   0  0  1  0  0  0  0  0  0  0  0  0
   15.3317   72.5162   -6.0745 C   0  0  2  0  0  0  0  0  0  0  0  0
   16.2309   71.6132   -4.0867 C   0  0  1  0  0  0  0  0  0  0  0  0
   16.8476   72.6028   -6.1241 C   0  0  2  0  0  0  0  0  0  0  0  0
   14.4642   74.3232   -4.3155 H   0  0  0  0  0  0  0  0  0  0  0  0
   13.7401   73.5188   -6.6326 H   0  0  0  0  0  0  0  0  0  0  0  0
   17.0132   73.8871   -8.6340 O   0  0  0  0  0  0  0  0  0  0  0  0
   18.9569   70.1980  -10.5979 O   0  0  0  0  0  0  0  0  0  0  0  0
   17.3924   72.0011   -7.3081 N   0  0  0  0  0  0  0  0  0  0  0  0
   17.9802   72.0481   -9.6100 N   0  0  0  0  0  0  0  0  0  0  0  0
   17.4288   72.7326   -8.5188 C   0  0  0  0  0  0  0  0  0  0  0  0
   17.8844   70.7024   -7.2626 C   0  0  0  0  0  0  0  0  0  0  0  0
   18.4071   70.0633   -8.3111 C   0  0  0  0  0  0  0  0  0  0  0  0
   18.4816   70.7566   -9.6138 C   0  0  0  0  0  0  0  0  0  0  0  0
   18.0144   72.5362  -10.4643 H   0  0  0  0  0  0  0  0  0  0  0  0
   17.8480   69.6592   -1.9345 O   0  0  0  0  0  0  0  0  0  0  0  0
   19.0728   70.5063   -1.3054 P   0  0  2  0  0  0  0  0  0  0  0  0
   20.1046   69.3582   -0.8177 O   0  0  0  0  0  0  0  0  0  0  0  0
   18.6660   71.4701   -0.2285 O   0  0  0  0  0  0  0  0  0  0  0  0
   19.7942   71.1886   -2.5769 O   0  0  0  0  0  0  0  0  0  0  0  0
   21.5410   72.3337   -1.4604 O   0  0  0  0  0  0  0  0  0  0  0  0
   22.7876   72.5288   -5.3944 O   0  0  0  0  0  0  0  0  0  0  0  0
   19.9826   72.9679   -4.7063 O   0  0  0  0  0  0  0  0  0  0  0  0
   24.0523   70.6679   -3.5535 O   0  0  0  0  0  0  0  0  0  0  0  0
   22.1406   71.9533   -4.2594 C   0  0  2  0  0  0  0  0  0  0  0  0
   21.0448   72.8965   -3.7622 C   0  0  2  0  0  0  0  0  0  0  0  0
   23.1951   71.7418   -3.1707 C   0  0  1  0  0  0  0  0  0  0  0  0
   20.4861   72.4259   -2.4186 C   0  0  1  0  0  0  0  0  0  0  0  0
   22.5511   71.3979   -1.8307 C   0  0  1  0  0  0  0  0  0  0  0  0
   22.1368   72.6724   -6.0995 H   0  0  0  0  0  0  0  0  0  0  0  0
   20.3300   73.2656   -5.5613 H   0  0  0  0  0  0  0  0  0  0  0  0
   24.4684   70.8742   -4.4051 H   0  0  0  0  0  0  0  0  0  0  0  0
   24.5652   70.6441   -0.8945 O   0  0  0  0  0  0  0  0  0  0  0  0
   23.4534   72.2937    0.2199 O   0  0  0  0  0  0  0  0  0  0  0  0
   23.5426   71.5173   -0.7195 C   0  0  0  0  0  0  0  0  0  0  0  0
  1  4  1  0
  1 24  1  0
  1  2  1  6
  1  3  2  0
 25 28  1  0
 25 24  1  0
 25 26  1  1
 25 27  2  0
  6 11  1  0
  6 12  1  0
 29 36  1  0
 29 37  1  0
  9  7  1  1
  7 13  1  0
 10  8  1  1
  8 14  1  0
  4  5  1  0
 36 28  1  6
 33 30  1  6
 30 38  1  0
 34 31  1  6
 31 39  1  0
 35 32  1  6
 32 40  1  0
 41 43  1  0
 15 19  2  0
 42 43  2  0
 16 22  2  0
 12 17  1  6
 17 19  1  0
 17 20  1  0
 18 19  1  0
 18 22  1  0
 18 23  1  0
  9 10  1  0
  9 11  1  0
 10 12  1  0
 11  5  1  6
 33 34  1  0
 33 35  1  0
 34 36  1  0
 35 37  1  0
 37 43  1  1
 20 21  2  0
 21 22  1  0
M  CHG  3   2  -1  26  -1  41  -1
M  END
>  <COMPND>  (194) 
    udp_gluA.pdb 

>  <AUTHOR>  (194) 
    GENERATED BY OPEN BABEL 3.1.1

>  <MASTER>  (194) 
        0    0    0    0    0    0    0    0   56    0   56    0

>  <minimizedAffinity>  (194) 
-7.84065

>  <CNNscore>  (194) 
0.3964152038

>  <CNNaffinity>  (194) 
4.2132430077

>  <CNN_VS>  (194) 
1.6701935530

>  <CNNaffinity_variance>  (194) 
0.2171319425

$$$$
195
     RDKit          3D

 43 45  0  0  0  0  0  0  0  0999 V2000
   19.1490   74.7284   -6.3902 P   0  0  2  0  0  0  0  0  0  0  0  0
   17.8794   75.7292   -6.4627 O   0  0  0  0  0  0  0  0  0  0  0  0
   20.4872   75.3909   -6.5391 O   0  0  0  0  0  0  0  0  0  0  0  0
   18.8055   73.5852   -7.4825 O   0  0  0  0  0  0  0  0  0  0  0  0
   19.3354   72.2863   -7.2912 C   0  0  0  0  0  0  0  0  0  0  0  0
   18.4687   70.1194   -6.7161 O   0  0  0  0  0  0  0  0  0  0  0  0
   15.9148   71.0013   -8.0166 O   0  0  0  0  0  0  0  0  0  0  0  0
   15.3735   71.3209   -5.3631 O   0  0  0  0  0  0  0  0  0  0  0  0
   16.8464   71.7617   -7.2469 C   0  0  1  0  0  0  0  0  0  0  0  0
   16.7200   71.4144   -5.7787 C   0  0  2  0  0  0  0  0  0  0  0  0
   18.2461   71.2597   -7.5737 C   0  0  1  0  0  0  0  0  0  0  0  0
   17.4483   70.0832   -5.7057 C   0  0  2  0  0  0  0  0  0  0  0  0
   15.0130   71.3041   -7.8247 H   0  0  0  0  0  0  0  0  0  0  0  0
   14.9539   72.1937   -5.4277 H   0  0  0  0  0  0  0  0  0  0  0  0
   16.0633   69.2532   -3.3885 O   0  0  0  0  0  0  0  0  0  0  0  0
   19.9144   69.2776   -0.8562 O   0  0  0  0  0  0  0  0  0  0  0  0
   18.0644   69.8650   -4.4275 N   0  0  0  0  0  0  0  0  0  0  0  0
   17.9825   69.2671   -2.1293 N   0  0  0  0  0  0  0  0  0  0  0  0
   17.2785   69.4487   -3.3270 C   0  0  0  0  0  0  0  0  0  0  0  0
   19.4315   70.0613   -4.2740 C   0  0  0  0  0  0  0  0  0  0  0  0
   20.0884   69.8840   -3.1260 C   0  0  0  0  0  0  0  0  0  0  0  0
   19.3409   69.4504   -1.9274 C   0  0  0  0  0  0  0  0  0  0  0  0
   17.4563   68.9794   -1.3484 H   0  0  0  0  0  0  0  0  0  0  0  0
   18.9289   73.9643   -4.9829 O   0  0  0  0  0  0  0  0  0  0  0  0
   19.6049   74.1952   -3.5326 P   0  0  2  0  0  0  0  0  0  0  0  0
   18.5431   73.5157   -2.5172 O   0  0  0  0  0  0  0  0  0  0  0  0
   19.9254   75.6290   -3.2238 O   0  0  0  0  0  0  0  0  0  0  0  0
   20.8785   73.2052   -3.5124 O   0  0  0  0  0  0  0  0  0  0  0  0
   22.5211   74.0474   -2.0286 O   0  0  0  0  0  0  0  0  0  0  0  0
   24.4075   70.7075   -3.5630 O   0  0  0  0  0  0  0  0  0  0  0  0
   22.8708   72.4739   -5.3102 O   0  0  0  0  0  0  0  0  0  0  0  0
   23.3045   70.6540   -0.8738 O   0  0  0  0  0  0  0  0  0  0  0  0
   23.2969   71.4941   -3.1320 C   0  0  2  0  0  0  0  0  0  0  0  0
   23.2228   72.7743   -3.9646 C   0  0  2  0  0  0  0  0  0  0  0  0
   23.5021   71.8319   -1.6535 C   0  0  1  0  0  0  0  0  0  0  0  0
   22.1927   73.7449   -3.3851 C   0  0  1  0  0  0  0  0  0  0  0  0
   22.5172   72.8987   -1.1839 C   0  0  1  0  0  0  0  0  0  0  0  0
   24.2991   70.4807   -4.5001 H   0  0  0  0  0  0  0  0  0  0  0  0
   23.5201   71.8582   -5.6840 H   0  0  0  0  0  0  0  0  0  0  0  0
   23.9253   69.9670   -1.1628 H   0  0  0  0  0  0  0  0  0  0  0  0
   22.7847   72.5238    1.1159 O   0  0  0  0  0  0  0  0  0  0  0  0
   23.3418   74.5893    0.3270 O   0  0  0  0  0  0  0  0  0  0  0  0
   22.9288   73.4546    0.1403 C   0  0  0  0  0  0  0  0  0  0  0  0
  1  4  1  0
  1 24  1  0
  1  2  1  1
  1  3  2  0
 25 28  1  0
 25 24  1  0
 25 26  1  1
 25 27  2  0
  6 11  1  0
  6 12  1  0
 29 36  1  0
 29 37  1  0
  9  7  1  6
  7 13  1  0
 10  8  1  6
  8 14  1  0
  4  5  1  0
 36 28  1  1
 33 30  1  6
 30 38  1  0
 34 31  1  6
 31 39  1  0
 35 32  1  1
 32 40  1  0
 41 43  1  0
 15 19  2  0
 42 43  2  0
 16 22  2  0
 12 17  1  1
 17 19  1  0
 17 20  1  0
 18 19  1  0
 18 22  1  0
 18 23  1  0
  9 10  1  0
  9 11  1  0
 10 12  1  0
 11  5  1  1
 33 34  1  0
 33 35  1  0
 34 36  1  0
 35 37  1  0
 37 43  1  1
 20 21  2  0
 21 22  1  0
M  CHG  3   2  -1  26  -1  41  -1
M  END
>  <COMPND>  (195) 
    udp_gluA.pdb 

>  <AUTHOR>  (195) 
    GENERATED BY OPEN BABEL 3.1.1

>  <MASTER>  (195) 
        0    0    0    0    0    0    0    0   56    0   56    0

>  <minimizedAffinity>  (195) 
-7.43173

>  <CNNscore>  (195) 
0.3794377148

>  <CNNaffinity>  (195) 
4.0775618553

>  <CNN_VS>  (195) 
1.5471807718

>  <CNNaffinity_variance>  (195) 
0.5682079196

$$$$
196
     RDKit          3D

 43 45  0  0  0  0  0  0  0  0999 V2000
   17.1643   68.8230   -4.0929 P   0  0  2  0  0  0  0  0  0  0  0  0
   16.7159   67.2686   -4.1315 O   0  0  0  0  0  0  0  0  0  0  0  0
   16.0370   69.8044   -3.9588 O   0  0  0  0  0  0  0  0  0  0  0  0
   18.0910   68.9928   -5.4083 O   0  0  0  0  0  0  0  0  0  0  0  0
   18.1067   70.2459   -6.0671 C   0  0  0  0  0  0  0  0  0  0  0  0
   16.1159   70.4817   -7.3932 O   0  0  0  0  0  0  0  0  0  0  0  0
   17.9227   70.3974   -9.7848 O   0  0  0  0  0  0  0  0  0  0  0  0
   17.4080   73.0622   -9.5205 O   0  0  0  0  0  0  0  0  0  0  0  0
   18.1484   70.9822   -8.5020 C   0  0  1  0  0  0  0  0  0  0  0  0
   17.3480   72.2595   -8.3601 C   0  0  2  0  0  0  0  0  0  0  0  0
   17.5026   70.0837   -7.4560 C   0  0  1  0  0  0  0  0  0  0  0  0
   15.9510   71.7278   -8.0884 C   0  0  2  0  0  0  0  0  0  0  0  0
   18.3263   70.9539  -10.4697 H   0  0  0  0  0  0  0  0  0  0  0  0
   18.3172   73.3763   -9.6497 H   0  0  0  0  0  0  0  0  0  0  0  0
   14.1851   73.6859   -9.1003 O   0  0  0  0  0  0  0  0  0  0  0  0
   13.0241   75.0891   -4.8662 O   0  0  0  0  0  0  0  0  0  0  0  0
   15.1747   72.6183   -7.2729 N   0  0  0  0  0  0  0  0  0  0  0  0
   13.6093   74.3836   -6.9905 N   0  0  0  0  0  0  0  0  0  0  0  0
   14.3178   73.5660   -7.8809 C   0  0  0  0  0  0  0  0  0  0  0  0
   15.2650   72.5469   -5.8881 C   0  0  0  0  0  0  0  0  0  0  0  0
   14.5833   73.3328   -5.0524 C   0  0  0  0  0  0  0  0  0  0  0  0
   13.6664   74.3505   -5.6066 C   0  0  0  0  0  0  0  0  0  0  0  0
   13.0078   75.0526   -7.3905 H   0  0  0  0  0  0  0  0  0  0  0  0
   18.2376   68.8612   -2.8848 O   0  0  0  0  0  0  0  0  0  0  0  0
   18.8401   70.1003   -2.0391 P   0  0  2  0  0  0  0  0  0  0  0  0
   19.7608   69.3737   -0.9234 O   0  0  0  0  0  0  0  0  0  0  0  0
   17.8001   71.0250   -1.4758 O   0  0  0  0  0  0  0  0  0  0  0  0
   19.8918   70.8052   -3.0387 O   0  0  0  0  0  0  0  0  0  0  0  0
   21.3942   71.9917   -1.6443 O   0  0  0  0  0  0  0  0  0  0  0  0
   23.0225   72.6473   -5.3842 O   0  0  0  0  0  0  0  0  0  0  0  0
   20.1316   72.7788   -4.9839 O   0  0  0  0  0  0  0  0  0  0  0  0
   24.2590   70.7443   -3.5675 O   0  0  0  0  0  0  0  0  0  0  0  0
   22.3179   71.9182   -4.3792 C   0  0  2  0  0  0  0  0  0  0  0  0
   21.0908   72.7145   -3.9348 C   0  0  2  0  0  0  0  0  0  0  0  0
   23.2676   71.7012   -3.1990 C   0  0  1  0  0  0  0  0  0  0  0  0
   20.4417   72.0784   -2.7048 C   0  0  1  0  0  0  0  0  0  0  0  0
   22.5224   71.1837   -1.9721 C   0  0  1  0  0  0  0  0  0  0  0  0
   22.4386   72.7971   -6.1444 H   0  0  0  0  0  0  0  0  0  0  0  0
   20.5368   73.1812   -5.7677 H   0  0  0  0  0  0  0  0  0  0  0  0
   24.7406   71.0615   -4.3474 H   0  0  0  0  0  0  0  0  0  0  0  0
   24.4791   70.5083   -0.8691 O   0  0  0  0  0  0  0  0  0  0  0  0
   23.1232   71.9791    0.2252 O   0  0  0  0  0  0  0  0  0  0  0  0
   23.3758   71.2877   -0.7501 C   0  0  0  0  0  0  0  0  0  0  0  0
  1  4  1  0
  1 24  1  0
  1  2  1  6
  1  3  2  0
 25 28  1  0
 25 24  1  0
 25 26  1  1
 25 27  2  0
  6 11  1  0
  6 12  1  0
 29 36  1  0
 29 37  1  0
  9  7  1  6
  7 13  1  0
 10  8  1  6
  8 14  1  0
  4  5  1  0
 36 28  1  6
 33 30  1  6
 30 38  1  0
 34 31  1  6
 31 39  1  0
 35 32  1  6
 32 40  1  0
 41 43  1  0
 15 19  2  0
 42 43  2  0
 16 22  2  0
 12 17  1  1
 17 19  1  0
 17 20  1  0
 18 19  1  0
 18 22  1  0
 18 23  1  0
  9 10  1  0
  9 11  1  0
 10 12  1  0
 11  5  1  1
 33 34  1  0
 33 35  1  0
 34 36  1  0
 35 37  1  0
 37 43  1  1
 20 21  2  0
 21 22  1  0
M  CHG  3   2  -1  26  -1  41  -1
M  END
>  <COMPND>  (196) 
    udp_gluA.pdb 

>  <AUTHOR>  (196) 
    GENERATED BY OPEN BABEL 3.1.1

>  <MASTER>  (196) 
        0    0    0    0    0    0    0    0   56    0   56    0

>  <minimizedAffinity>  (196) 
-8.23309

>  <CNNscore>  (196) 
0.3654423952

>  <CNNaffinity>  (196) 
4.1843709946

>  <CNN_VS>  (196) 
1.5291465521

>  <CNNaffinity_variance>  (196) 
0.1533032358

$$$$
197
     RDKit          3D

 43 45  0  0  0  0  0  0  0  0999 V2000
   17.9886   69.3353   -4.0377 P   0  0  2  0  0  0  0  0  0  0  0  0
   19.2132   68.6506   -3.2313 O   0  0  0  0  0  0  0  0  0  0  0  0
   16.6200   68.9222   -3.5815 O   0  0  0  0  0  0  0  0  0  0  0  0
   18.3312   69.0375   -5.5907 O   0  0  0  0  0  0  0  0  0  0  0  0
   18.7112   70.1209   -6.4191 C   0  0  0  0  0  0  0  0  0  0  0  0
   16.5665   70.3049   -7.4886 O   0  0  0  0  0  0  0  0  0  0  0  0
   18.0803   70.5504  -10.0654 O   0  0  0  0  0  0  0  0  0  0  0  0
   17.4197   73.1379   -9.5136 O   0  0  0  0  0  0  0  0  0  0  0  0
   18.4152   71.0479   -8.7697 C   0  0  1  0  0  0  0  0  0  0  0  0
   17.5519   72.2439   -8.4283 C   0  0  2  0  0  0  0  0  0  0  0  0
   17.9600   70.0223   -7.7405 C   0  0  1  0  0  0  0  0  0  0  0  0
   16.2362   71.5854   -8.0496 C   0  0  2  0  0  0  0  0  0  0  0  0
   18.3615   71.1888  -10.7399 H   0  0  0  0  0  0  0  0  0  0  0  0
   18.2838   73.5309   -9.7157 H   0  0  0  0  0  0  0  0  0  0  0  0
   14.3654   73.6035   -8.6851 O   0  0  0  0  0  0  0  0  0  0  0  0
   13.4805   74.4375   -4.2392 O   0  0  0  0  0  0  0  0  0  0  0  0
   15.5026   72.3457   -7.0778 N   0  0  0  0  0  0  0  0  0  0  0  0
   13.9272   74.0176   -6.4702 N   0  0  0  0  0  0  0  0  0  0  0  0
   14.5865   73.3371   -7.5022 C   0  0  0  0  0  0  0  0  0  0  0  0
   15.6922   72.1056   -5.7223 C   0  0  0  0  0  0  0  0  0  0  0  0
   15.0563   72.7624   -4.7501 C   0  0  0  0  0  0  0  0  0  0  0  0
   14.0829   73.8147   -5.1085 C   0  0  0  0  0  0  0  0  0  0  0  0
   13.2860   74.7139   -6.7411 H   0  0  0  0  0  0  0  0  0  0  0  0
   18.2978   70.9154   -3.8939 O   0  0  0  0  0  0  0  0  0  0  0  0
   18.3465   71.8733   -2.5925 P   0  0  2  0  0  0  0  0  0  0  0  0
   17.3657   71.1242   -1.5450 O   0  0  0  0  0  0  0  0  0  0  0  0
   17.9818   73.3036   -2.8667 O   0  0  0  0  0  0  0  0  0  0  0  0
   19.8265   71.6643   -1.9855 O   0  0  0  0  0  0  0  0  0  0  0  0
   21.2757   73.5355   -2.0699 O   0  0  0  0  0  0  0  0  0  0  0  0
   23.8925   70.4885   -1.1022 O   0  0  0  0  0  0  0  0  0  0  0  0
   21.8106   70.0712   -3.1087 O   0  0  0  0  0  0  0  0  0  0  0  0
   23.0396   72.3809    0.9330 O   0  0  0  0  0  0  0  0  0  0  0  0
   22.6421   71.1773   -1.1159 C   0  0  2  0  0  0  0  0  0  0  0  0
   22.1609   71.3358   -2.5584 C   0  0  2  0  0  0  0  0  0  0  0  0
   22.8508   72.5492   -0.4707 C   0  0  1  0  0  0  0  0  0  0  0  0
   20.9478   72.2641   -2.6316 C   0  0  1  0  0  0  0  0  0  0  0  0
   21.6469   73.4594   -0.6953 C   0  0  1  0  0  0  0  0  0  0  0  0
   23.7844   69.6137   -1.5075 H   0  0  0  0  0  0  0  0  0  0  0  0
   22.5757   69.4770   -3.0652 H   0  0  0  0  0  0  0  0  0  0  0  0
   23.8030   71.8033    1.0897 H   0  0  0  0  0  0  0  0  0  0  0  0
   21.1407   75.7304   -0.9917 O   0  0  0  0  0  0  0  0  0  0  0  0
   22.8882   75.2251    0.3830 O   0  0  0  0  0  0  0  0  0  0  0  0
   21.9829   74.8760   -0.3596 C   0  0  0  0  0  0  0  0  0  0  0  0
  1  4  1  0
  1 24  1  0
  1  2  1  1
  1  3  2  0
 25 28  1  0
 25 24  1  0
 25 26  1  1
 25 27  2  0
  6 11  1  0
  6 12  1  0
 29 36  1  0
 29 37  1  0
  9  7  1  6
  7 13  1  0
 10  8  1  6
  8 14  1  0
  4  5  1  0
 36 28  1  1
 33 30  1  6
 30 38  1  0
 34 31  1  1
 31 39  1  0
 35 32  1  1
 32 40  1  0
 41 43  1  0
 15 19  2  0
 42 43  2  0
 16 22  2  0
 12 17  1  1
 17 19  1  0
 17 20  1  0
 18 19  1  0
 18 22  1  0
 18 23  1  0
  9 10  1  0
  9 11  1  0
 10 12  1  0
 11  5  1  1
 33 34  1  0
 33 35  1  0
 34 36  1  0
 35 37  1  0
 37 43  1  6
 20 21  2  0
 21 22  1  0
M  CHG  3   2  -1  26  -1  41  -1
M  END
>  <COMPND>  (197) 
    udp_gluA.pdb 

>  <AUTHOR>  (197) 
    GENERATED BY OPEN BABEL 3.1.1

>  <MASTER>  (197) 
        0    0    0    0    0    0    0    0   56    0   56    0

>  <minimizedAffinity>  (197) 
-7.41780

>  <CNNscore>  (197) 
0.3346819282

>  <CNNaffinity>  (197) 
4.0893373489

>  <CNN_VS>  (197) 
1.3686273098

>  <CNNaffinity_variance>  (197) 
0.1684804857

$$$$
198
     RDKit          3D

 43 45  0  0  0  0  0  0  0  0999 V2000
   21.9609   72.9050   -4.9493 P   0  0  2  0  0  0  0  0  0  0  0  0
   23.5517   72.7718   -5.2148 O   0  0  0  0  0  0  0  0  0  0  0  0
   21.1959   73.6150   -6.0275 O   0  0  0  0  0  0  0  0  0  0  0  0
   21.8669   73.5606   -3.4730 O   0  0  0  0  0  0  0  0  0  0  0  0
   23.0323   74.1389   -2.9146 C   0  0  0  0  0  0  0  0  0  0  0  0
   21.3161   74.4147   -1.2544 O   0  0  0  0  0  0  0  0  0  0  0  0
   23.5163   75.2171    0.6183 O   0  0  0  0  0  0  0  0  0  0  0  0
   23.0363   72.6306    1.3364 O   0  0  0  0  0  0  0  0  0  0  0  0
   23.5263   74.2381   -0.4209 C   0  0  1  0  0  0  0  0  0  0  0  0
   22.7489   73.0114    0.0071 C   0  0  2  0  0  0  0  0  0  0  0  0
   22.6805   74.7658   -1.5717 C   0  0  1  0  0  0  0  0  0  0  0  0
   21.3118   73.4704   -0.1720 C   0  0  2  0  0  0  0  0  0  0  0  0
   24.0504   74.9023    1.3648 H   0  0  0  0  0  0  0  0  0  0  0  0
   23.9623   72.3466    1.3984 H   0  0  0  0  0  0  0  0  0  0  0  0
   18.4970   73.6819   -0.2630 O   0  0  0  0  0  0  0  0  0  0  0  0
   18.0198   69.2520   -1.4428 O   0  0  0  0  0  0  0  0  0  0  0  0
   20.4278   72.3880   -0.5002 N   0  0  0  0  0  0  0  0  0  0  0  0
   18.2619   71.4751   -0.8495 N   0  0  0  0  0  0  0  0  0  0  0  0
   19.0288   72.5997   -0.5174 C   0  0  0  0  0  0  0  0  0  0  0  0
   20.9475   71.1351   -0.8018 C   0  0  0  0  0  0  0  0  0  0  0  0
   20.2038   70.0727   -1.1167 C   0  0  0  0  0  0  0  0  0  0  0  0
   18.7330   70.2088   -1.1565 C   0  0  0  0  0  0  0  0  0  0  0  0
   17.2852   71.5975   -0.8661 H   0  0  0  0  0  0  0  0  0  0  0  0
   21.5057   71.3746   -4.6969 O   0  0  0  0  0  0  0  0  0  0  0  0
   20.0497   70.6752   -4.7657 P   0  0  2  0  0  0  0  0  0  0  0  0
   19.0812   71.7676   -4.0665 O   0  0  0  0  0  0  0  0  0  0  0  0
   19.9924   69.3100   -4.1438 O   0  0  0  0  0  0  0  0  0  0  0  0
   19.6492   70.7167   -6.3279 O   0  0  0  0  0  0  0  0  0  0  0  0
   17.3017   70.5930   -6.6161 O   0  0  0  0  0  0  0  0  0  0  0  0
   18.6363   70.4645  -10.5238 O   0  0  0  0  0  0  0  0  0  0  0  0
   20.0065   68.9428   -8.4401 O   0  0  0  0  0  0  0  0  0  0  0  0
   17.4684   72.9049   -9.4603 O   0  0  0  0  0  0  0  0  0  0  0  0
   18.6699   70.8402   -9.1469 C   0  0  2  0  0  0  0  0  0  0  0  0
   18.7480   69.5860   -8.2760 C   0  0  2  0  0  0  0  0  0  0  0  0
   17.3916   71.6232   -8.8391 C   0  0  1  0  0  0  0  0  0  0  0  0
   18.5546   69.9327   -6.7991 C   0  0  1  0  0  0  0  0  0  0  0  0
   17.2066   71.8194   -7.3372 C   0  0  1  0  0  0  0  0  0  0  0  0
   19.4390   69.9654  -10.7426 H   0  0  0  0  0  0  0  0  0  0  0  0
   20.1359   68.7202   -9.3751 H   0  0  0  0  0  0  0  0  0  0  0  0
   17.5864   72.7942  -10.4166 H   0  0  0  0  0  0  0  0  0  0  0  0
   15.5900   72.2514   -5.6935 O   0  0  0  0  0  0  0  0  0  0  0  0
   15.0004   72.6441   -7.8609 O   0  0  0  0  0  0  0  0  0  0  0  0
   15.8198   72.2827   -7.0296 C   0  0  0  0  0  0  0  0  0  0  0  0
  1  4  1  0
  1 24  1  0
  1  2  1  6
  1  3  2  0
 25 28  1  0
 25 24  1  0
 25 26  1  1
 25 27  2  0
  6 11  1  0
  6 12  1  0
 29 36  1  0
 29 37  1  0
  9  7  1  1
  7 13  1  0
 10  8  1  1
  8 14  1  0
  4  5  1  0
 36 28  1  6
 33 30  1  6
 30 38  1  0
 34 31  1  1
 31 39  1  0
 35 32  1  6
 32 40  1  0
 41 43  1  0
 15 19  2  0
 42 43  2  0
 16 22  2  0
 12 17  1  6
 17 19  1  0
 17 20  1  0
 18 19  1  0
 18 22  1  0
 18 23  1  0
  9 10  1  0
  9 11  1  0
 10 12  1  0
 11  5  1  6
 33 34  1  0
 33 35  1  0
 34 36  1  0
 35 37  1  0
 37 43  1  6
 20 21  2  0
 21 22  1  0
M  CHG  3   2  -1  26  -1  41  -1
M  END
>  <COMPND>  (198) 
    udp_gluA.pdb 

>  <AUTHOR>  (198) 
    GENERATED BY OPEN BABEL 3.1.1

>  <MASTER>  (198) 
        0    0    0    0    0    0    0    0   56    0   56    0

>  <minimizedAffinity>  (198) 
-8.00608

>  <CNNscore>  (198) 
0.3332240582

>  <CNNaffinity>  (198) 
3.9996275902

>  <CNN_VS>  (198) 
1.3327721357

>  <CNNaffinity_variance>  (198) 
0.3040330112

$$$$
199
     RDKit          3D

 43 45  0  0  0  0  0  0  0  0999 V2000
   23.0734   71.7394   -3.5915 P   0  0  2  0  0  0  0  0  0  0  0  0
   23.6630   72.5301   -4.8745 O   0  0  0  0  0  0  0  0  0  0  0  0
   23.8328   70.5043   -3.2045 O   0  0  0  0  0  0  0  0  0  0  0  0
   21.5121   71.5192   -3.9547 O   0  0  0  0  0  0  0  0  0  0  0  0
   20.9329   70.2511   -3.7081 C   0  0  0  0  0  0  0  0  0  0  0  0
   18.7589   71.0559   -4.3436 O   0  0  0  0  0  0  0  0  0  0  0  0
   17.6927   69.4173   -2.0699 O   0  0  0  0  0  0  0  0  0  0  0  0
   17.1484   67.8545   -4.2372 O   0  0  0  0  0  0  0  0  0  0  0  0
   18.7734   69.1341   -2.9589 C   0  0  1  0  0  0  0  0  0  0  0  0
   18.2423   68.7437   -4.3219 C   0  0  2  0  0  0  0  0  0  0  0  0
   19.4901   70.4435   -3.2593 C   0  0  1  0  0  0  0  0  0  0  0  0
   17.8566   70.0912   -4.9079 C   0  0  2  0  0  0  0  0  0  0  0  0
   17.2196   68.5956   -1.8634 H   0  0  0  0  0  0  0  0  0  0  0  0
   17.4454   67.0117   -3.8585 H   0  0  0  0  0  0  0  0  0  0  0  0
   15.9933   71.3206   -6.6380 O   0  0  0  0  0  0  0  0  0  0  0  0
   18.4153   70.1444  -10.3789 O   0  0  0  0  0  0  0  0  0  0  0  0
   17.9757   70.1211   -6.3382 N   0  0  0  0  0  0  0  0  0  0  0  0
   17.2008   70.7327   -8.4996 N   0  0  0  0  0  0  0  0  0  0  0  0
   16.9843   70.7650   -7.1157 C   0  0  0  0  0  0  0  0  0  0  0  0
   19.0651   69.5193   -6.9561 C   0  0  0  0  0  0  0  0  0  0  0  0
   19.2580   69.4968   -8.2764 C   0  0  0  0  0  0  0  0  0  0  0  0
   18.2681   70.1463   -9.1605 C   0  0  0  0  0  0  0  0  0  0  0  0
   16.5229   71.1727   -9.0618 H   0  0  0  0  0  0  0  0  0  0  0  0
   23.0234   72.8840   -2.4513 O   0  0  0  0  0  0  0  0  0  0  0  0
   22.5443   72.8251   -0.9084 P   0  0  2  0  0  0  0  0  0  0  0  0
   23.1608   74.1824   -0.2775 O   0  0  0  0  0  0  0  0  0  0  0  0
   22.9440   71.5706   -0.1870 O   0  0  0  0  0  0  0  0  0  0  0  0
   20.9535   73.0878   -0.9635 O   0  0  0  0  0  0  0  0  0  0  0  0
   20.1445   74.6992    0.5719 O   0  0  0  0  0  0  0  0  0  0  0  0
   16.6326   73.0267   -0.8199 O   0  0  0  0  0  0  0  0  0  0  0  0
   18.9328   71.3367   -0.1975 O   0  0  0  0  0  0  0  0  0  0  0  0
   17.4660   75.6527   -1.7473 O   0  0  0  0  0  0  0  0  0  0  0  0
   17.9906   73.4596   -0.8987 C   0  0  2  0  0  0  0  0  0  0  0  0
   18.8266   72.7144    0.1421 C   0  0  2  0  0  0  0  0  0  0  0  0
   18.0233   74.9656   -0.6285 C   0  0  1  0  0  0  0  0  0  0  0  0
   20.2307   73.3116    0.2456 C   0  0  1  0  0  0  0  0  0  0  0  0
   19.4500   75.4620   -0.4125 C   0  0  1  0  0  0  0  0  0  0  0  0
   16.5870   72.0723   -0.9881 H   0  0  0  0  0  0  0  0  0  0  0  0
   18.0455   70.9515   -0.2652 H   0  0  0  0  0  0  0  0  0  0  0  0
   16.5579   75.3458   -1.8957 H   0  0  0  0  0  0  0  0  0  0  0  0
   20.0225   76.8396    1.3975 O   0  0  0  0  0  0  0  0  0  0  0  0
   19.0017   77.8325   -0.3833 O   0  0  0  0  0  0  0  0  0  0  0  0
   19.4505   76.8387    0.1680 C   0  0  0  0  0  0  0  0  0  0  0  0
  1  4  1  0
  1 24  1  0
  1  2  1  6
  1  3  2  0
 25 28  1  0
 25 24  1  0
 25 26  1  1
 25 27  2  0
  6 11  1  0
  6 12  1  0
 29 36  1  0
 29 37  1  0
  9  7  1  1
  7 13  1  0
 10  8  1  1
  8 14  1  0
  4  5  1  0
 36 28  1  6
 33 30  1  1
 30 38  1  0
 34 31  1  6
 31 39  1  0
 35 32  1  6
 32 40  1  0
 41 43  1  0
 15 19  2  0
 42 43  2  0
 16 22  2  0
 12 17  1  6
 17 19  1  0
 17 20  1  0
 18 19  1  0
 18 22  1  0
 18 23  1  0
  9 10  1  0
  9 11  1  0
 10 12  1  0
 11  5  1  6
 33 34  1  0
 33 35  1  0
 34 36  1  0
 35 37  1  0
 37 43  1  1
 20 21  2  0
 21 22  1  0
M  CHG  3   2  -1  26  -1  41  -1
M  END
>  <COMPND>  (199) 
    udp_gluA.pdb 

>  <AUTHOR>  (199) 
    GENERATED BY OPEN BABEL 3.1.1

>  <MASTER>  (199) 
        0    0    0    0    0    0    0    0   56    0   56    0

>  <minimizedAffinity>  (199) 
-7.97423

>  <CNNscore>  (199) 
0.3177697361

>  <CNNaffinity>  (199) 
4.2979140282

>  <CNN_VS>  (199) 
1.3657469749

>  <CNNaffinity_variance>  (199) 
0.1633081734

$$$$
200
     RDKit          3D

 43 45  0  0  0  0  0  0  0  0999 V2000
   15.1734   73.2168   -5.6407 P   0  0  2  0  0  0  0  0  0  0  0  0
   15.5173   71.8545   -4.8378 O   0  0  0  0  0  0  0  0  0  0  0  0
   13.7189   73.5847   -5.6705 O   0  0  0  0  0  0  0  0  0  0  0  0
   15.8743   73.0049   -7.0835 O   0  0  0  0  0  0  0  0  0  0  0  0
   16.4152   71.7334   -7.3922 C   0  0  0  0  0  0  0  0  0  0  0  0
   18.7570   72.2729   -7.3418 O   0  0  0  0  0  0  0  0  0  0  0  0
   18.9119   71.0293  -10.0659 O   0  0  0  0  0  0  0  0  0  0  0  0
   19.8877   69.0577   -8.4544 O   0  0  0  0  0  0  0  0  0  0  0  0
   18.1159   70.6495   -8.9431 C   0  0  1  0  0  0  0  0  0  0  0  0
   18.9764   69.9792   -7.8932 C   0  0  2  0  0  0  0  0  0  0  0  0
   17.6741   71.9198   -8.2294 C   0  0  1  0  0  0  0  0  0  0  0  0
   19.6690   71.1672   -7.2476 C   0  0  2  0  0  0  0  0  0  0  0  0
   19.2060   70.2340  -10.5379 H   0  0  0  0  0  0  0  0  0  0  0  0
   19.3980   68.3203   -8.8524 H   0  0  0  0  0  0  0  0  0  0  0  0
   21.4395   72.7545   -5.7237 O   0  0  0  0  0  0  0  0  0  0  0  0
   20.7889   70.1841   -1.9535 O   0  0  0  0  0  0  0  0  0  0  0  0
   19.9805   70.9353   -5.8655 N   0  0  0  0  0  0  0  0  0  0  0  0
   21.1145   71.4722   -3.8477 N   0  0  0  0  0  0  0  0  0  0  0  0
   20.8832   71.7918   -5.1920 C   0  0  0  0  0  0  0  0  0  0  0  0
   19.3936   69.8712   -5.1914 C   0  0  0  0  0  0  0  0  0  0  0  0
   19.6239   69.5793   -3.9098 C   0  0  0  0  0  0  0  0  0  0  0  0
   20.5552   70.4245   -3.1342 C   0  0  0  0  0  0  0  0  0  0  0  0
   21.7410   72.0531   -3.3584 H   0  0  0  0  0  0  0  0  0  0  0  0
   16.1297   74.3087   -4.9291 O   0  0  0  0  0  0  0  0  0  0  0  0
   15.9668   75.1160   -3.5379 P   0  0  2  0  0  0  0  0  0  0  0  0
   14.7590   74.3344   -2.7959 O   0  0  0  0  0  0  0  0  0  0  0  0
   15.7389   76.5905   -3.7046 O   0  0  0  0  0  0  0  0  0  0  0  0
   17.2828   74.7340   -2.6866 O   0  0  0  0  0  0  0  0  0  0  0  0
   19.4786   74.0816   -3.2883 O   0  0  0  0  0  0  0  0  0  0  0  0
   18.7837   71.7288    0.0358 O   0  0  0  0  0  0  0  0  0  0  0  0
   16.6950   72.1114   -1.9705 O   0  0  0  0  0  0  0  0  0  0  0  0
   20.5036   74.0641    0.2347 O   0  0  0  0  0  0  0  0  0  0  0  0
   18.6651   72.8891   -0.7874 C   0  0  2  0  0  0  0  0  0  0  0  0
   18.0537   72.5010   -2.1339 C   0  0  2  0  0  0  0  0  0  0  0  0
   20.0657   73.4724   -0.9871 C   0  0  1  0  0  0  0  0  0  0  0  0
   18.1224   73.6662   -3.1221 C   0  0  1  0  0  0  0  0  0  0  0  0
   20.0742   74.5406   -2.0768 C   0  0  1  0  0  0  0  0  0  0  0  0
   17.9057   71.3408    0.1764 H   0  0  0  0  0  0  0  0  0  0  0  0
   16.6439   71.3726   -1.3445 H   0  0  0  0  0  0  0  0  0  0  0  0
   20.5026   73.3947    0.9366 H   0  0  0  0  0  0  0  0  0  0  0  0
   22.2956   73.8109   -2.2623 O   0  0  0  0  0  0  0  0  0  0  0  0
   21.8329   75.9269   -2.9748 O   0  0  0  0  0  0  0  0  0  0  0  0
   21.4725   74.8639   -2.4919 C   0  0  0  0  0  0  0  0  0  0  0  0
  1  4  1  0
  1 24  1  0
  1  2  1  1
  1  3  2  0
 25 28  1  0
 25 24  1  0
 25 26  1  1
 25 27  2  0
  6 11  1  0
  6 12  1  0
 29 36  1  0
 29 37  1  0
  9  7  1  6
  7 13  1  0
 10  8  1  6
  8 14  1  0
  4  5  1  0
 36 28  1  1
 33 30  1  1
 30 38  1  0
 34 31  1  1
 31 39  1  0
 35 32  1  1
 32 40  1  0
 41 43  1  0
 15 19  2  0
 42 43  2  0
 16 22  2  0
 12 17  1  1
 17 19  1  0
 17 20  1  0
 18 19  1  0
 18 22  1  0
 18 23  1  0
  9 10  1  0
  9 11  1  0
 10 12  1  0
 11  5  1  1
 33 34  1  0
 33 35  1  0
 34 36  1  0
 35 37  1  0
 37 43  1  6
 20 21  2  0
 21 22  1  0
M  CHG  3   2  -1  26  -1  41  -1
M  END
