1
     RDKit          3D

 43 45  0  0  0  0  0  0  0  0999 V2000
   20.5583   70.5315   -1.7093 P   0  0  2  0  0  0  0  0  0  0  0  0
   20.1574   69.3751   -0.6512 O   0  0  0  0  0  0  0  0  0  0  0  0
   19.8231   71.8284   -1.5395 O   0  0  0  0  0  0  0  0  0  0  0  0
   20.3935   69.8137   -3.1500 O   0  0  0  0  0  0  0  0  0  0  0  0
   19.5015   68.7184   -3.2616 C   0  0  0  0  0  0  0  0  0  0  0  0
   17.8023   70.1969   -4.0986 O   0  0  0  0  0  0  0  0  0  0  0  0
   15.8520   68.5326   -2.5438 O   0  0  0  0  0  0  0  0  0  0  0  0
   15.5308   67.6035   -5.0875 O   0  0  0  0  0  0  0  0  0  0  0  0
   17.0270   68.1271   -3.2439 C   0  0  1  0  0  0  0  0  0  0  0  0
   16.7843   68.1546   -4.7386 C   0  0  2  0  0  0  0  0  0  0  0  0
   18.0760   69.2186   -3.0718 C   0  0  1  0  0  0  0  0  0  0  0  0
   16.8759   69.6397   -5.0453 C   0  0  2  0  0  0  0  0  0  0  0  0
   15.1676   67.8510   -2.6390 H   0  0  0  0  0  0  0  0  0  0  0  0
   15.5223   66.6576   -4.8732 H   0  0  0  0  0  0  0  0  0  0  0  0
   15.5229   71.2225   -6.9538 O   0  0  0  0  0  0  0  0  0  0  0  0
   18.8125   70.5526  -10.1115 O   0  0  0  0  0  0  0  0  0  0  0  0
   17.3562   69.8960   -6.3739 N   0  0  0  0  0  0  0  0  0  0  0  0
   17.1620   70.8878   -8.5244 N   0  0  0  0  0  0  0  0  0  0  0  0
   16.5999   70.7037   -7.2548 C   0  0  0  0  0  0  0  0  0  0  0  0
   18.5648   69.3492   -6.7912 C   0  0  0  0  0  0  0  0  0  0  0  0
   19.0865   69.5333   -8.0058 C   0  0  0  0  0  0  0  0  0  0  0  0
   18.3592   70.3645   -8.9867 C   0  0  0  0  0  0  0  0  0  0  0  0
   16.6525   71.4466   -9.1552 H   0  0  0  0  0  0  0  0  0  0  0  0
   22.1621   70.6400   -1.5388 O   0  0  0  0  0  0  0  0  0  0  0  0
   23.2397   71.6224   -2.2363 P   0  0  2  0  0  0  0  0  0  0  0  0
   24.5304   70.6695   -2.4443 O   0  0  0  0  0  0  0  0  0  0  0  0
   23.5162   72.8798   -1.4641 O   0  0  0  0  0  0  0  0  0  0  0  0
   22.6675   71.8646   -3.7259 O   0  0  0  0  0  0  0  0  0  0  0  0
   23.1044   74.0435   -4.5492 O   0  0  0  0  0  0  0  0  0  0  0  0
   20.4079   72.7850   -7.4120 O   0  0  0  0  0  0  0  0  0  0  0  0
   23.1885   73.0220   -8.0902 O   0  0  0  0  0  0  0  0  0  0  0  0
   20.0205   72.0468   -4.6399 O   0  0  0  0  0  0  0  0  0  0  0  0
   21.4728   72.6340   -6.4694 C   0  0  1  0  0  0  0  0  0  0  0  0
   22.6224   73.5501   -6.8939 C   0  0  1  0  0  0  0  0  0  0  0  0
   20.9669   73.0151   -5.0794 C   0  0  2  0  0  0  0  0  0  0  0  0
   23.6892   73.6459   -5.7949 C   0  0  1  0  0  0  0  0  0  0  0  0
   22.1133   73.1309   -4.0732 C   0  0  1  0  0  0  0  0  0  0  0  0
   20.7224   72.5441   -8.2967 H   0  0  0  0  0  0  0  0  0  0  0  0
   22.5045   72.9663   -8.7759 H   0  0  0  0  0  0  0  0  0  0  0  0
   19.2998   71.9832   -5.2852 H   0  0  0  0  0  0  0  0  0  0  0  0
   25.6630   74.0997   -7.0625 O   0  0  0  0  0  0  0  0  0  0  0  0
   24.7658   74.6755   -6.1311 C   0  0  0  0  0  0  0  0  0  0  0  0
   26.3536   74.7438   -7.2860 H   0  0  0  0  0  0  0  0  0  0  0  0
 25 28  1  0
 25 24  1  0
 25 26  1  6
 25 27  2  0
  1  4  1  0
  1 24  1  0
  1  2  1  1
  1  3  2  0
  6 11  1  0
  6 12  1  0
 29 36  1  0
 29 37  1  0
  9  7  1  1
  7 13  1  0
 10  8  1  1
  8 14  1  0
 37 28  1  6
  4  5  1  0
 33 30  1  6
 30 38  1  0
 34 31  1  6
 31 39  1  0
 35 32  1  1
 32 40  1  0
 41 42  1  0
 41 43  1  0
 15 19  2  0
 16 22  2  0
 12 17  1  6
 17 19  1  0
 17 20  1  0
 18 19  1  0
 18 22  1  0
 18 23  1  0
  9 10  1  0
  9 11  1  0
 10 12  1  0
 11  5  1  6
 33 34  1  0
 33 35  1  0
 34 36  1  0
 35 37  1  0
 36 42  1  6
 20 21  2  0
 21 22  1  0
M  CHG  2   2  -1  26  -1
M  END
>  <COMPND>  (1) 
    8629 

>  <AUTHOR>  (1) 
    GENERATED BY OPEN BABEL 3.1.1

>  <MASTER>  (1) 
        0    0    0    0    0    0    0    0   58    0   58    0

>  <minimizedAffinity>  (1) 
-8.59019

>  <CNNscore>  (1) 
0.6349208951

>  <CNNaffinity>  (1) 
4.5021100044

>  <CNN_VS>  (1) 
2.8584837914

>  <CNNaffinity_variance>  (1) 
0.6170918345

$$$$
2
     RDKit          3D

 43 45  0  0  0  0  0  0  0  0999 V2000
   20.7215   70.8962   -2.3219 P   0  0  2  0  0  0  0  0  0  0  0  0
   19.6699   72.0835   -2.0030 O   0  0  0  0  0  0  0  0  0  0  0  0
   21.3674   70.9680   -3.6744 O   0  0  0  0  0  0  0  0  0  0  0  0
   19.8872   69.5449   -2.0126 O   0  0  0  0  0  0  0  0  0  0  0  0
   19.1716   68.9345   -3.0724 C   0  0  0  0  0  0  0  0  0  0  0  0
   17.4478   70.2904   -4.0542 O   0  0  0  0  0  0  0  0  0  0  0  0
   15.4997   68.5435   -2.5900 O   0  0  0  0  0  0  0  0  0  0  0  0
   15.4038   67.5450   -5.1258 O   0  0  0  0  0  0  0  0  0  0  0  0
   16.7405   68.1954   -3.2019 C   0  0  1  0  0  0  0  0  0  0  0  0
   16.5967   68.1777   -4.7094 C   0  0  2  0  0  0  0  0  0  0  0  0
   17.7097   69.3515   -2.9883 C   0  0  1  0  0  0  0  0  0  0  0  0
   16.6209   69.6591   -5.0456 C   0  0  2  0  0  0  0  0  0  0  0  0
   14.8645   67.8200   -2.7130 H   0  0  0  0  0  0  0  0  0  0  0  0
   15.4368   66.6049   -4.8896 H   0  0  0  0  0  0  0  0  0  0  0  0
   15.3988   71.2870   -7.0037 O   0  0  0  0  0  0  0  0  0  0  0  0
   18.8285   70.5750   -9.9991 O   0  0  0  0  0  0  0  0  0  0  0  0
   17.1727   69.9167   -6.3458 N   0  0  0  0  0  0  0  0  0  0  0  0
   17.1076   70.9313   -8.4935 N   0  0  0  0  0  0  0  0  0  0  0  0
   16.4786   70.7481   -7.2555 C   0  0  0  0  0  0  0  0  0  0  0  0
   18.3891   69.3481   -6.7074 C   0  0  0  0  0  0  0  0  0  0  0  0
   18.9749   69.5317   -7.8925 C   0  0  0  0  0  0  0  0  0  0  0  0
   18.3154   70.3868   -8.9004 C   0  0  0  0  0  0  0  0  0  0  0  0
   16.6422   71.5064   -9.1435 H   0  0  0  0  0  0  0  0  0  0  0  0
   21.7518   70.9797   -1.0791 O   0  0  0  0  0  0  0  0  0  0  0  0
   23.1645   71.7492   -0.9212 P   0  0  2  0  0  0  0  0  0  0  0  0
   24.2090   70.7641   -1.6670 O   0  0  0  0  0  0  0  0  0  0  0  0
   23.5298   72.0801    0.4969 O   0  0  0  0  0  0  0  0  0  0  0  0
   23.0437   73.0292   -1.8969 O   0  0  0  0  0  0  0  0  0  0  0  0
   23.8146   75.2380   -2.2756 O   0  0  0  0  0  0  0  0  0  0  0  0
   19.8276   76.0435   -1.5640 O   0  0  0  0  0  0  0  0  0  0  0  0
   20.8636   76.2609   -4.2337 O   0  0  0  0  0  0  0  0  0  0  0  0
   21.1828   73.9952   -0.0317 O   0  0  0  0  0  0  0  0  0  0  0  0
   20.9364   75.2833   -2.0520 C   0  0  1  0  0  0  0  0  0  0  0  0
   21.6872   76.1347   -3.0778 C   0  0  1  0  0  0  0  0  0  0  0  0
   21.8489   74.9234   -0.8810 C   0  0  2  0  0  0  0  0  0  0  0  0
   23.0333   75.4975   -3.4478 C   0  0  1  0  0  0  0  0  0  0  0  0
   23.1804   74.3425   -1.3603 C   0  0  1  0  0  0  0  0  0  0  0  0
   19.2441   76.2748   -2.3025 H   0  0  0  0  0  0  0  0  0  0  0  0
   20.0166   76.6642   -3.9863 H   0  0  0  0  0  0  0  0  0  0  0  0
   20.3416   74.3748    0.2652 H   0  0  0  0  0  0  0  0  0  0  0  0
   25.2267   76.2897   -3.9679 O   0  0  0  0  0  0  0  0  0  0  0  0
   23.8679   76.4058   -4.3481 C   0  0  0  0  0  0  0  0  0  0  0  0
   25.7698   76.8621   -4.5327 H   0  0  0  0  0  0  0  0  0  0  0  0
 25 28  1  0
 25 24  1  0
 25 26  1  6
 25 27  2  0
  1  4  1  0
  1 24  1  0
  1  2  1  1
  1  3  2  0
  6 11  1  0
  6 12  1  0
 29 36  1  0
 29 37  1  0
  9  7  1  1
  7 13  1  0
 10  8  1  1
  8 14  1  0
 37 28  1  6
  4  5  1  0
 33 30  1  1
 30 38  1  0
 34 31  1  6
 31 39  1  0
 35 32  1  1
 32 40  1  0
 41 42  1  0
 41 43  1  0
 15 19  2  0
 16 22  2  0
 12 17  1  6
 17 19  1  0
 17 20  1  0
 18 19  1  0
 18 22  1  0
 18 23  1  0
  9 10  1  0
  9 11  1  0
 10 12  1  0
 11  5  1  6
 33 34  1  0
 33 35  1  0
 34 36  1  0
 35 37  1  0
 36 42  1  6
 20 21  2  0
 21 22  1  0
M  CHG  2   2  -1  26  -1
M  END
>  <COMPND>  (2) 
    8629 

>  <AUTHOR>  (2) 
    GENERATED BY OPEN BABEL 3.1.1

>  <MASTER>  (2) 
        0    0    0    0    0    0    0    0   58    0   58    0

>  <minimizedAffinity>  (2) 
-6.68175

>  <CNNscore>  (2) 
0.6264188886

>  <CNNaffinity>  (2) 
4.6719808578

>  <CNN_VS>  (2) 
2.9266171455

>  <CNNaffinity_variance>  (2) 
0.0263703912

$$$$
3
     RDKit          3D

 43 45  0  0  0  0  0  0  0  0999 V2000
   21.9133   71.4804   -3.5326 P   0  0  2  0  0  0  0  0  0  0  0  0
   22.1691   72.6271   -4.6448 O   0  0  0  0  0  0  0  0  0  0  0  0
   23.1350   70.7123   -3.1216 O   0  0  0  0  0  0  0  0  0  0  0  0
   20.7056   70.6002   -4.1528 O   0  0  0  0  0  0  0  0  0  0  0  0
   20.1727   69.5414   -3.3764 C   0  0  0  0  0  0  0  0  0  0  0  0
   18.1854   70.6035   -4.2108 O   0  0  0  0  0  0  0  0  0  0  0  0
   16.6708   68.8234   -2.3325 O   0  0  0  0  0  0  0  0  0  0  0  0
   16.3510   67.5659   -4.7311 O   0  0  0  0  0  0  0  0  0  0  0  0
   17.8498   68.5449   -3.0860 C   0  0  1  0  0  0  0  0  0  0  0  0
   17.5069   68.3581   -4.5492 C   0  0  2  0  0  0  0  0  0  0  0  0
   18.6969   69.8110   -3.1169 C   0  0  1  0  0  0  0  0  0  0  0  0
   17.3119   69.7918   -5.0126 C   0  0  2  0  0  0  0  0  0  0  0  0
   16.1140   68.0292   -2.2985 H   0  0  0  0  0  0  0  0  0  0  0  0
   16.5254   66.6634   -4.4215 H   0  0  0  0  0  0  0  0  0  0  0  0
   15.7601   71.2662   -6.8555 O   0  0  0  0  0  0  0  0  0  0  0  0
   18.7024   70.4095  -10.2980 O   0  0  0  0  0  0  0  0  0  0  0  0
   17.6491   69.9707   -6.3967 N   0  0  0  0  0  0  0  0  0  0  0  0
   17.2265   70.8385   -8.5680 N   0  0  0  0  0  0  0  0  0  0  0  0
   16.8014   70.7285   -7.2379 C   0  0  0  0  0  0  0  0  0  0  0  0
   18.8092   69.3982   -6.9069 C   0  0  0  0  0  0  0  0  0  0  0  0
   19.1997   69.5114   -8.1781 C   0  0  0  0  0  0  0  0  0  0  0  0
   18.3704   70.2870   -9.1229 C   0  0  0  0  0  0  0  0  0  0  0  0
   16.6515   71.3617   -9.1726 H   0  0  0  0  0  0  0  0  0  0  0  0
   21.1934   72.2911   -2.3336 O   0  0  0  0  0  0  0  0  0  0  0  0
   21.6356   72.5277   -0.7969 P   0  0  2  0  0  0  0  0  0  0  0  0
   22.6047   71.2687   -0.4916 O   0  0  0  0  0  0  0  0  0  0  0  0
   20.4868   72.6710    0.1589 O   0  0  0  0  0  0  0  0  0  0  0  0
   22.6258   73.8013   -0.8483 O   0  0  0  0  0  0  0  0  0  0  0  0
   22.5853   75.8412    0.3574 O   0  0  0  0  0  0  0  0  0  0  0  0
   23.8723   77.2618   -3.3000 O   0  0  0  0  0  0  0  0  0  0  0  0
   25.7176   77.1229   -1.1038 O   0  0  0  0  0  0  0  0  0  0  0  0
   21.8806   75.1644   -3.1853 O   0  0  0  0  0  0  0  0  0  0  0  0
   23.7697   76.3154   -2.2327 C   0  0  1  0  0  0  0  0  0  0  0  0
   24.3085   76.9692   -0.9587 C   0  0  1  0  0  0  0  0  0  0  0  0
   22.3050   75.9195   -2.0557 C   0  0  2  0  0  0  0  0  0  0  0  0
   23.9883   76.1191    0.2782 C   0  0  1  0  0  0  0  0  0  0  0  0
   22.0877   75.1187   -0.7706 C   0  0  1  0  0  0  0  0  0  0  0  0
   24.8000   77.5170   -3.4179 H   0  0  0  0  0  0  0  0  0  0  0  0
   25.9063   77.6611   -1.8886 H   0  0  0  0  0  0  0  0  0  0  0  0
   22.0230   75.6823   -3.9924 H   0  0  0  0  0  0  0  0  0  0  0  0
   24.3973   78.2220    1.3363 O   0  0  0  0  0  0  0  0  0  0  0  0
   24.3767   76.8266    1.5746 C   0  0  0  0  0  0  0  0  0  0  0  0
   24.6427   78.6852    2.1529 H   0  0  0  0  0  0  0  0  0  0  0  0
 25 28  1  0
 25 24  1  0
 25 26  1  1
 25 27  2  0
  1  4  1  0
  1 24  1  0
  1  2  1  6
  1  3  2  0
  6 11  1  0
  6 12  1  0
 29 36  1  0
 29 37  1  0
  9  7  1  1
  7 13  1  0
 10  8  1  1
  8 14  1  0
 37 28  1  6
  4  5  1  0
 33 30  1  6
 30 38  1  0
 34 31  1  6
 31 39  1  0
 35 32  1  6
 32 40  1  0
 41 42  1  0
 41 43  1  0
 15 19  2  0
 16 22  2  0
 12 17  1  6
 17 19  1  0
 17 20  1  0
 18 19  1  0
 18 22  1  0
 18 23  1  0
  9 10  1  0
  9 11  1  0
 10 12  1  0
 11  5  1  6
 33 34  1  0
 33 35  1  0
 34 36  1  0
 35 37  1  0
 36 42  1  1
 20 21  2  0
 21 22  1  0
M  CHG  2   2  -1  26  -1
M  END
>  <COMPND>  (3) 
    8629 

>  <AUTHOR>  (3) 
    GENERATED BY OPEN BABEL 3.1.1

>  <MASTER>  (3) 
        0    0    0    0    0    0    0    0   58    0   58    0

>  <minimizedAffinity>  (3) 
-7.21389

>  <CNNscore>  (3) 
0.6114504337

>  <CNNaffinity>  (3) 
4.5546512604

>  <CNN_VS>  (3) 
2.7849435806

>  <CNNaffinity_variance>  (3) 
0.0098451432

$$$$
4
     RDKit          3D

 43 45  0  0  0  0  0  0  0  0999 V2000
   20.6628   72.5730   -4.9507 P   0  0  2  0  0  0  0  0  0  0  0  0
   19.3856   73.0392   -4.0737 O   0  0  0  0  0  0  0  0  0  0  0  0
   21.4198   73.6881   -5.6102 O   0  0  0  0  0  0  0  0  0  0  0  0
   20.0610   71.4478   -5.9455 O   0  0  0  0  0  0  0  0  0  0  0  0
   19.9584   71.7508   -7.3259 C   0  0  0  0  0  0  0  0  0  0  0  0
   18.6163   69.7826   -7.0111 O   0  0  0  0  0  0  0  0  0  0  0  0
   17.7605   70.1378   -9.8628 O   0  0  0  0  0  0  0  0  0  0  0  0
   15.6394   71.1448   -8.4758 O   0  0  0  0  0  0  0  0  0  0  0  0
   18.0379   71.1282   -8.8741 C   0  0  1  0  0  0  0  0  0  0  0  0
   16.9119   71.1918   -7.8632 C   0  0  2  0  0  0  0  0  0  0  0  0
   19.2004   70.6302   -8.0244 C   0  0  1  0  0  0  0  0  0  0  0  0
   17.1919   69.9715   -7.0026 C   0  0  2  0  0  0  0  0  0  0  0  0
   17.0215   70.4337  -10.4181 H   0  0  0  0  0  0  0  0  0  0  0  0
   15.5089   71.9425   -9.0120 H   0  0  0  0  0  0  0  0  0  0  0  0
   16.9971   67.8849   -5.1089 O   0  0  0  0  0  0  0  0  0  0  0  0
   15.4929   70.7539   -1.8305 O   0  0  0  0  0  0  0  0  0  0  0  0
   16.7526   70.1450   -5.6468 N   0  0  0  0  0  0  0  0  0  0  0  0
   16.2484   69.3152   -3.4780 N   0  0  0  0  0  0  0  0  0  0  0  0
   16.6899   69.0316   -4.7768 C   0  0  0  0  0  0  0  0  0  0  0  0
   16.3900   71.4082   -5.1921 C   0  0  0  0  0  0  0  0  0  0  0  0
   15.9699   71.6617   -3.9509 C   0  0  0  0  0  0  0  0  0  0  0  0
   15.8757   70.5533   -2.9790 C   0  0  0  0  0  0  0  0  0  0  0  0
   16.1963   68.5548   -2.8544 H   0  0  0  0  0  0  0  0  0  0  0  0
   21.5280   71.7026   -3.8986 O   0  0  0  0  0  0  0  0  0  0  0  0
   23.0255   71.9109   -3.3268 P   0  0  2  0  0  0  0  0  0  0  0  0
   23.8720   72.3195   -4.6437 O   0  0  0  0  0  0  0  0  0  0  0  0
   23.5706   70.7261   -2.5832 O   0  0  0  0  0  0  0  0  0  0  0  0
   22.9454   73.2679   -2.4566 O   0  0  0  0  0  0  0  0  0  0  0  0
   23.7225   73.8744   -0.3014 O   0  0  0  0  0  0  0  0  0  0  0  0
   19.9969   75.6511   -0.1836 O   0  0  0  0  0  0  0  0  0  0  0  0
   22.3424   77.2903   -0.4281 O   0  0  0  0  0  0  0  0  0  0  0  0
   20.3284   73.0752   -1.4619 O   0  0  0  0  0  0  0  0  0  0  0  0
   21.2132   75.2141   -0.7959 C   0  0  1  0  0  0  0  0  0  0  0  0
   22.3810   75.9065   -0.0905 C   0  0  1  0  0  0  0  0  0  0  0  0
   21.3247   73.6969   -0.6574 C   0  0  2  0  0  0  0  0  0  0  0  0
   23.7236   75.2917   -0.5083 C   0  0  1  0  0  0  0  0  0  0  0  0
   22.7146   73.1944   -1.0521 C   0  0  1  0  0  0  0  0  0  0  0  0
   19.9197   76.6136   -0.2685 H   0  0  0  0  0  0  0  0  0  0  0  0
   21.4894   77.6662   -0.1595 H   0  0  0  0  0  0  0  0  0  0  0  0
   19.4532   73.4014   -1.2021 H   0  0  0  0  0  0  0  0  0  0  0  0
   24.4128   76.2173    1.5840 O   0  0  0  0  0  0  0  0  0  0  0  0
   24.8887   75.8595    0.2995 C   0  0  0  0  0  0  0  0  0  0  0  0
   25.1436   76.5799    2.1094 H   0  0  0  0  0  0  0  0  0  0  0  0
 25 28  1  0
 25 24  1  0
 25 26  1  6
 25 27  2  0
  1  4  1  0
  1 24  1  0
  1  2  1  1
  1  3  2  0
  6 11  1  0
  6 12  1  0
 29 36  1  0
 29 37  1  0
  9  7  1  6
  7 13  1  0
 10  8  1  6
  8 14  1  0
 37 28  1  6
  4  5  1  0
 33 30  1  1
 30 38  1  0
 34 31  1  6
 31 39  1  0
 35 32  1  6
 32 40  1  0
 41 42  1  0
 41 43  1  0
 15 19  2  0
 16 22  2  0
 12 17  1  1
 17 19  1  0
 17 20  1  0
 18 19  1  0
 18 22  1  0
 18 23  1  0
  9 10  1  0
  9 11  1  0
 10 12  1  0
 11  5  1  1
 33 34  1  0
 33 35  1  0
 34 36  1  0
 35 37  1  0
 36 42  1  1
 20 21  2  0
 21 22  1  0
M  CHG  2   2  -1  26  -1
M  END
>  <COMPND>  (4) 
    8629 

>  <AUTHOR>  (4) 
    GENERATED BY OPEN BABEL 3.1.1

>  <MASTER>  (4) 
        0    0    0    0    0    0    0    0   58    0   58    0

>  <minimizedAffinity>  (4) 
-6.85856

>  <CNNscore>  (4) 
0.5890889168

>  <CNNaffinity>  (4) 
4.3179550171

>  <CNN_VS>  (4) 
2.5436594486

>  <CNNaffinity_variance>  (4) 
0.1195591837

$$$$
5
     RDKit          3D

 43 45  0  0  0  0  0  0  0  0999 V2000
   21.8320   71.5930   -3.4340 P   0  0  2  0  0  0  0  0  0  0  0  0
   23.1691   70.6963   -3.2752 O   0  0  0  0  0  0  0  0  0  0  0  0
   21.3545   72.2481   -2.1713 O   0  0  0  0  0  0  0  0  0  0  0  0
   20.7781   70.5956   -4.1499 O   0  0  0  0  0  0  0  0  0  0  0  0
   20.2320   69.5310   -3.3908 C   0  0  0  0  0  0  0  0  0  0  0  0
   18.2473   70.6116   -4.2074 O   0  0  0  0  0  0  0  0  0  0  0  0
   16.7358   68.8680   -2.2927 O   0  0  0  0  0  0  0  0  0  0  0  0
   16.3668   67.5937   -4.6753 O   0  0  0  0  0  0  0  0  0  0  0  0
   17.9007   68.5675   -3.0597 C   0  0  1  0  0  0  0  0  0  0  0  0
   17.5352   68.3724   -4.5164 C   0  0  2  0  0  0  0  0  0  0  0  0
   18.7635   69.8221   -3.1135 C   0  0  1  0  0  0  0  0  0  0  0  0
   17.3524   69.8043   -4.9899 C   0  0  2  0  0  0  0  0  0  0  0  0
   16.1693   68.0815   -2.2440 H   0  0  0  0  0  0  0  0  0  0  0  0
   16.5337   66.6918   -4.3600 H   0  0  0  0  0  0  0  0  0  0  0  0
   15.8590   71.3781   -6.7985 O   0  0  0  0  0  0  0  0  0  0  0  0
   18.6744   70.3524  -10.3004 O   0  0  0  0  0  0  0  0  0  0  0  0
   17.6728   69.9666   -6.3800 N   0  0  0  0  0  0  0  0  0  0  0  0
   17.2622   70.8662   -8.5407 N   0  0  0  0  0  0  0  0  0  0  0  0
   16.8573   70.7783   -7.2026 C   0  0  0  0  0  0  0  0  0  0  0  0
   18.7850   69.3251   -6.9143 C   0  0  0  0  0  0  0  0  0  0  0  0
   19.1567   69.4182   -8.1927 C   0  0  0  0  0  0  0  0  0  0  0  0
   18.3586   70.2468   -9.1193 C   0  0  0  0  0  0  0  0  0  0  0  0
   16.7089   71.4259   -9.1327 H   0  0  0  0  0  0  0  0  0  0  0  0
   22.2221   72.6208   -4.6191 O   0  0  0  0  0  0  0  0  0  0  0  0
   21.3495   73.2043   -5.8483 P   0  0  2  0  0  0  0  0  0  0  0  0
   20.2553   74.1429   -5.1138 O   0  0  0  0  0  0  0  0  0  0  0  0
   20.7616   72.1498   -6.7407 O   0  0  0  0  0  0  0  0  0  0  0  0
   22.3376   74.2385   -6.5960 O   0  0  0  0  0  0  0  0  0  0  0  0
   23.9358   73.7718   -8.2825 O   0  0  0  0  0  0  0  0  0  0  0  0
   25.8910   76.8569   -6.3561 O   0  0  0  0  0  0  0  0  0  0  0  0
   24.7275   77.3112   -8.9422 O   0  0  0  0  0  0  0  0  0  0  0  0
   24.4039   74.9065   -4.8185 O   0  0  0  0  0  0  0  0  0  0  0  0
   24.7562   76.1435   -6.8550 C   0  0  1  0  0  0  0  0  0  0  0  0
   24.8990   76.0163   -8.3729 C   0  0  1  0  0  0  0  0  0  0  0  0
   24.7075   74.7635   -6.2019 C   0  0  2  0  0  0  0  0  0  0  0  0
   23.8644   75.0389   -8.9467 C   0  0  1  0  0  0  0  0  0  0  0  0
   23.6805   73.8541   -6.8790 C   0  0  1  0  0  0  0  0  0  0  0  0
   25.9274   77.7342   -6.7665 H   0  0  0  0  0  0  0  0  0  0  0  0
   25.3865   77.9188   -8.5712 H   0  0  0  0  0  0  0  0  0  0  0  0
   25.0613   75.4840   -4.4013 H   0  0  0  0  0  0  0  0  0  0  0  0
   25.4795   74.8321  -10.6952 O   0  0  0  0  0  0  0  0  0  0  0  0
   24.0892   74.7761  -10.4341 C   0  0  0  0  0  0  0  0  0  0  0  0
   25.6377   74.6664  -11.6382 H   0  0  0  0  0  0  0  0  0  0  0  0
 25 28  1  0
 25 24  1  0
 25 26  1  1
 25 27  2  0
  1  4  1  0
  1 24  1  0
  1  2  1  1
  1  3  2  0
  6 11  1  0
  6 12  1  0
 29 36  1  0
 29 37  1  0
  9  7  1  1
  7 13  1  0
 10  8  1  1
  8 14  1  0
 37 28  1  6
  4  5  1  0
 33 30  1  1
 30 38  1  0
 34 31  1  6
 31 39  1  0
 35 32  1  1
 32 40  1  0
 41 42  1  0
 41 43  1  0
 15 19  2  0
 16 22  2  0
 12 17  1  6
 17 19  1  0
 17 20  1  0
 18 19  1  0
 18 22  1  0
 18 23  1  0
  9 10  1  0
  9 11  1  0
 10 12  1  0
 11  5  1  6
 33 34  1  0
 33 35  1  0
 34 36  1  0
 35 37  1  0
 36 42  1  6
 20 21  2  0
 21 22  1  0
M  CHG  2   2  -1  26  -1
M  END
>  <COMPND>  (5) 
    8629 

>  <AUTHOR>  (5) 
    GENERATED BY OPEN BABEL 3.1.1

>  <MASTER>  (5) 
        0    0    0    0    0    0    0    0   58    0   58    0

>  <minimizedAffinity>  (5) 
-7.39370

>  <CNNscore>  (5) 
0.5596985221

>  <CNNaffinity>  (5) 
4.4759368896

>  <CNN_VS>  (5) 
2.5051753521

>  <CNNaffinity_variance>  (5) 
0.2238860428

$$$$
6
     RDKit          3D

 43 45  0  0  0  0  0  0  0  0999 V2000
   22.6816   71.9049   -3.2368 P   0  0  2  0  0  0  0  0  0  0  0  0
   23.9274   71.0607   -3.8307 O   0  0  0  0  0  0  0  0  0  0  0  0
   23.0538   72.9820   -2.2607 O   0  0  0  0  0  0  0  0  0  0  0  0
   21.6733   70.7690   -2.6791 O   0  0  0  0  0  0  0  0  0  0  0  0
   20.8436   70.0882   -3.6042 C   0  0  0  0  0  0  0  0  0  0  0  0
   18.7039   70.9479   -4.2796 O   0  0  0  0  0  0  0  0  0  0  0  0
   17.5387   69.2212   -2.1229 O   0  0  0  0  0  0  0  0  0  0  0  0
   17.0564   67.7638   -4.3767 O   0  0  0  0  0  0  0  0  0  0  0  0
   18.6468   68.9646   -2.9840 C   0  0  1  0  0  0  0  0  0  0  0  0
   18.1626   68.6429   -4.3824 C   0  0  2  0  0  0  0  0  0  0  0  0
   19.3885   70.2781   -3.1984 C   0  0  1  0  0  0  0  0  0  0  0  0
   17.8120   70.0203   -4.9190 C   0  0  2  0  0  0  0  0  0  0  0  0
   17.0498   68.3967   -1.9710 H   0  0  0  0  0  0  0  0  0  0  0  0
   17.3302   66.9015   -4.0270 H   0  0  0  0  0  0  0  0  0  0  0  0
   15.9714   71.2547   -6.6702 O   0  0  0  0  0  0  0  0  0  0  0  0
   18.5723   70.3185  -10.3580 O   0  0  0  0  0  0  0  0  0  0  0  0
   17.9832   70.1138   -6.3415 N   0  0  0  0  0  0  0  0  0  0  0  0
   17.2680   70.7877   -8.5050 N   0  0  0  0  0  0  0  0  0  0  0  0
   16.9991   70.7533   -7.1308 C   0  0  0  0  0  0  0  0  0  0  0  0
   19.1172   69.5753   -6.9398 C   0  0  0  0  0  0  0  0  0  0  0  0
   19.3581   69.6153   -8.2519 C   0  0  0  0  0  0  0  0  0  0  0  0
   18.3796   70.2656   -9.1473 C   0  0  0  0  0  0  0  0  0  0  0  0
   16.5962   71.2279   -9.0747 H   0  0  0  0  0  0  0  0  0  0  0  0
   21.9328   72.4333   -4.5684 O   0  0  0  0  0  0  0  0  0  0  0  0
   21.3952   73.9035   -4.9714 P   0  0  2  0  0  0  0  0  0  0  0  0
   20.0584   73.5882   -5.8265 O   0  0  0  0  0  0  0  0  0  0  0  0
   22.4040   74.7521   -5.6898 O   0  0  0  0  0  0  0  0  0  0  0  0
   20.8546   74.5342   -3.5876 O   0  0  0  0  0  0  0  0  0  0  0  0
   19.5904   73.3167   -1.9951 O   0  0  0  0  0  0  0  0  0  0  0  0
   18.2264   77.1217   -1.1509 O   0  0  0  0  0  0  0  0  0  0  0  0
   19.9977   75.8095    0.6899 O   0  0  0  0  0  0  0  0  0  0  0  0
   18.7321   76.3443   -3.8931 O   0  0  0  0  0  0  0  0  0  0  0  0
   19.1912   76.1394   -1.5376 C   0  0  1  0  0  0  0  0  0  0  0  0
   19.3473   75.1420   -0.3880 C   0  0  1  0  0  0  0  0  0  0  0  0
   18.7045   75.4318   -2.8009 C   0  0  2  0  0  0  0  0  0  0  0  0
   20.1597   73.9156   -0.8250 C   0  0  1  0  0  0  0  0  0  0  0  0
   19.5512   74.1982   -3.1191 C   0  0  1  0  0  0  0  0  0  0  0  0
   18.5296   77.5750   -0.3497 H   0  0  0  0  0  0  0  0  0  0  0  0
   19.4748   76.5822    0.9559 H   0  0  0  0  0  0  0  0  0  0  0  0
   18.1922   77.1207   -3.6794 H   0  0  0  0  0  0  0  0  0  0  0  0
   18.8748   72.3683    0.4650 O   0  0  0  0  0  0  0  0  0  0  0  0
   20.1941   72.8375    0.2560 C   0  0  0  0  0  0  0  0  0  0  0  0
   18.8814   71.6813    1.1503 H   0  0  0  0  0  0  0  0  0  0  0  0
 25 28  1  0
 25 24  1  0
 25 26  1  6
 25 27  2  0
  1  4  1  0
  1 24  1  0
  1  2  1  6
  1  3  2  0
  6 11  1  0
  6 12  1  0
 29 36  1  0
 29 37  1  0
  9  7  1  1
  7 13  1  0
 10  8  1  1
  8 14  1  0
 37 28  1  1
  4  5  1  0
 33 30  1  1
 30 38  1  0
 34 31  1  1
 31 39  1  0
 35 32  1  6
 32 40  1  0
 41 42  1  0
 41 43  1  0
 15 19  2  0
 16 22  2  0
 12 17  1  6
 17 19  1  0
 17 20  1  0
 18 19  1  0
 18 22  1  0
 18 23  1  0
  9 10  1  0
  9 11  1  0
 10 12  1  0
 11  5  1  6
 33 34  1  0
 33 35  1  0
 34 36  1  0
 35 37  1  0
 36 42  1  1
 20 21  2  0
 21 22  1  0
M  CHG  2   2  -1  26  -1
M  END
>  <COMPND>  (6) 
    8629 

>  <AUTHOR>  (6) 
    GENERATED BY OPEN BABEL 3.1.1

>  <MASTER>  (6) 
        0    0    0    0    0    0    0    0   58    0   58    0

>  <minimizedAffinity>  (6) 
-6.77052

>  <CNNscore>  (6) 
0.5006513596

>  <CNNaffinity>  (6) 
4.1853241920

>  <CNN_VS>  (6) 
2.0953881741

>  <CNNaffinity_variance>  (6) 
0.2514930367

$$$$
7
     RDKit          3D

 43 45  0  0  0  0  0  0  0  0999 V2000
   17.8701   70.8272   -2.0152 P   0  0  2  0  0  0  0  0  0  0  0  0
   16.3541   71.3919   -2.0294 O   0  0  0  0  0  0  0  0  0  0  0  0
   18.0516   69.5164   -1.3078 O   0  0  0  0  0  0  0  0  0  0  0  0
   18.7397   72.0635   -1.4377 O   0  0  0  0  0  0  0  0  0  0  0  0
   18.0996   73.3149   -1.2586 C   0  0  0  0  0  0  0  0  0  0  0  0
   20.0648   73.3890    0.1221 O   0  0  0  0  0  0  0  0  0  0  0  0
   19.5275   76.3254    0.4047 O   0  0  0  0  0  0  0  0  0  0  0  0
   21.5083   76.2611   -1.4685 O   0  0  0  0  0  0  0  0  0  0  0  0
   19.3304   75.4768   -0.7250 C   0  0  1  0  0  0  0  0  0  0  0  0
   20.6600   75.1358   -1.3649 C   0  0  2  0  0  0  0  0  0  0  0  0
   18.8647   74.1183   -0.2159 C   0  0  1  0  0  0  0  0  0  0  0  0
   21.2035   74.0791   -0.4182 C   0  0  2  0  0  0  0  0  0  0  0  0
   19.8249   77.1991    0.1046 H   0  0  0  0  0  0  0  0  0  0  0  0
   21.1192   76.9041   -2.0816 H   0  0  0  0  0  0  0  0  0  0  0  0
   22.9888   72.3323    0.9005 O   0  0  0  0  0  0  0  0  0  0  0  0
   24.4054   70.4832   -3.0764 O   0  0  0  0  0  0  0  0  0  0  0  0
   22.0507   73.1306   -1.0844 N   0  0  0  0  0  0  0  0  0  0  0  0
   23.6926   71.4129   -1.0808 N   0  0  0  0  0  0  0  0  0  0  0  0
   22.9118   72.3005   -0.3295 C   0  0  0  0  0  0  0  0  0  0  0  0
   22.0221   73.0301   -2.4711 C   0  0  0  0  0  0  0  0  0  0  0  0
   22.7740   72.1793   -3.1726 C   0  0  0  0  0  0  0  0  0  0  0  0
   23.7009   71.2765   -2.4599 C   0  0  0  0  0  0  0  0  0  0  0  0
   24.3004   70.8249   -0.5761 H   0  0  0  0  0  0  0  0  0  0  0  0
   18.2649   70.8061   -3.5826 O   0  0  0  0  0  0  0  0  0  0  0  0
   19.1407   69.7544   -4.4426 P   0  0  2  0  0  0  0  0  0  0  0  0
   18.2310   68.4165   -4.4303 O   0  0  0  0  0  0  0  0  0  0  0  0
   20.5392   69.5570   -3.9336 O   0  0  0  0  0  0  0  0  0  0  0  0
   19.0515   70.2940   -5.9611 O   0  0  0  0  0  0  0  0  0  0  0  0
   16.8583   70.3236   -6.8586 O   0  0  0  0  0  0  0  0  0  0  0  0
   19.0049   70.8645  -10.3443 O   0  0  0  0  0  0  0  0  0  0  0  0
   17.5341   73.0647   -9.2289 O   0  0  0  0  0  0  0  0  0  0  0  0
   19.9961   69.0682   -8.3021 O   0  0  0  0  0  0  0  0  0  0  0  0
   18.7275   71.0108   -8.9489 C   0  0  1  0  0  0  0  0  0  0  0  0
   17.3775   71.7150   -8.7997 C   0  0  1  0  0  0  0  0  0  0  0  0
   18.6874   69.6284   -8.3004 C   0  0  2  0  0  0  0  0  0  0  0  0
   16.8870   71.6701   -7.3462 C   0  0  1  0  0  0  0  0  0  0  0  0
   18.1388   69.6895   -6.8737 C   0  0  1  0  0  0  0  0  0  0  0  0
   19.0322   71.7387  -10.7620 H   0  0  0  0  0  0  0  0  0  0  0  0
   17.8447   73.0790  -10.1479 H   0  0  0  0  0  0  0  0  0  0  0  0
   20.3321   69.0347   -9.2109 H   0  0  0  0  0  0  0  0  0  0  0  0
   14.8725   72.2661   -8.4845 O   0  0  0  0  0  0  0  0  0  0  0  0
   15.4722   72.2267   -7.2026 C   0  0  0  0  0  0  0  0  0  0  0  0
   13.9713   72.6180   -8.4085 H   0  0  0  0  0  0  0  0  0  0  0  0
 25 28  1  0
 25 24  1  0
 25 26  1  6
 25 27  2  0
  1  4  1  0
  1 24  1  0
  1  2  1  6
  1  3  2  0
  6 11  1  0
  6 12  1  0
 29 36  1  0
 29 37  1  0
  9  7  1  1
  7 13  1  0
 10  8  1  1
  8 14  1  0
 37 28  1  1
  4  5  1  0
 33 30  1  6
 30 38  1  0
 34 31  1  1
 31 39  1  0
 35 32  1  1
 32 40  1  0
 41 42  1  0
 41 43  1  0
 15 19  2  0
 16 22  2  0
 12 17  1  6
 17 19  1  0
 17 20  1  0
 18 19  1  0
 18 22  1  0
 18 23  1  0
  9 10  1  0
  9 11  1  0
 10 12  1  0
 11  5  1  6
 33 34  1  0
 33 35  1  0
 34 36  1  0
 35 37  1  0
 36 42  1  6
 20 21  2  0
 21 22  1  0
M  CHG  2   2  -1  26  -1
M  END
>  <COMPND>  (7) 
    8629 

>  <AUTHOR>  (7) 
    GENERATED BY OPEN BABEL 3.1.1

>  <MASTER>  (7) 
        0    0    0    0    0    0    0    0   58    0   58    0

>  <minimizedAffinity>  (7) 
-7.86853

>  <CNNscore>  (7) 
0.4815323353

>  <CNNaffinity>  (7) 
4.2228240967

>  <CNN_VS>  (7) 
2.0334262848

>  <CNNaffinity_variance>  (7) 
0.4097684324

$$$$
8
     RDKit          3D

 43 45  0  0  0  0  0  0  0  0999 V2000
   19.3551   69.6392   -4.1353 P   0  0  2  0  0  0  0  0  0  0  0  0
   20.5862   70.6572   -4.3915 O   0  0  0  0  0  0  0  0  0  0  0  0
   19.7154   68.3809   -3.4016 O   0  0  0  0  0  0  0  0  0  0  0  0
   18.7076   69.4353   -5.6040 O   0  0  0  0  0  0  0  0  0  0  0  0
   19.2386   70.1800   -6.6863 C   0  0  0  0  0  0  0  0  0  0  0  0
   16.9866   70.1554   -7.5239 O   0  0  0  0  0  0  0  0  0  0  0  0
   18.1993   70.3872  -10.2564 O   0  0  0  0  0  0  0  0  0  0  0  0
   17.4019   72.9436   -9.7411 O   0  0  0  0  0  0  0  0  0  0  0  0
   18.6281   70.9695   -9.0266 C   0  0  1  0  0  0  0  0  0  0  0  0
   17.7153   72.1147   -8.6405 C   0  0  2  0  0  0  0  0  0  0  0  0
   18.3641   69.9631   -7.9136 C   0  0  1  0  0  0  0  0  0  0  0  0
   16.5013   71.3804   -8.0971 C   0  0  2  0  0  0  0  0  0  0  0  0
   18.3582   71.0115  -10.9823 H   0  0  0  0  0  0  0  0  0  0  0  0
   18.2063   73.3885  -10.0504 H   0  0  0  0  0  0  0  0  0  0  0  0
   14.4060   73.2056   -8.6036 O   0  0  0  0  0  0  0  0  0  0  0  0
   13.9476   74.2035   -4.1275 O   0  0  0  0  0  0  0  0  0  0  0  0
   15.8162   72.1307   -7.0827 N   0  0  0  0  0  0  0  0  0  0  0  0
   14.1794   73.7009   -6.3744 N   0  0  0  0  0  0  0  0  0  0  0  0
   14.7785   73.0217   -7.4429 C   0  0  0  0  0  0  0  0  0  0  0  0
   16.1747   71.9790   -5.7476 C   0  0  0  0  0  0  0  0  0  0  0  0
   15.5942   72.6350   -4.7407 C   0  0  0  0  0  0  0  0  0  0  0  0
   14.5012   73.5851   -5.0314 C   0  0  0  0  0  0  0  0  0  0  0  0
   13.4542   74.3273   -6.6014 H   0  0  0  0  0  0  0  0  0  0  0  0
   18.2660   70.5677   -3.3838 O   0  0  0  0  0  0  0  0  0  0  0  0
   18.1827   71.0787   -1.8525 P   0  0  2  0  0  0  0  0  0  0  0  0
   18.5225   69.7475   -0.9981 O   0  0  0  0  0  0  0  0  0  0  0  0
   16.8794   71.7305   -1.4913 O   0  0  0  0  0  0  0  0  0  0  0  0
   19.4776   72.0241   -1.6662 O   0  0  0  0  0  0  0  0  0  0  0  0
   21.5901   71.1194   -1.0873 O   0  0  0  0  0  0  0  0  0  0  0  0
   22.1338   74.9829    0.2649 O   0  0  0  0  0  0  0  0  0  0  0  0
   23.4930   74.1069   -2.1085 O   0  0  0  0  0  0  0  0  0  0  0  0
   19.5668   73.6860    0.5932 O   0  0  0  0  0  0  0  0  0  0  0  0
   21.6352   73.9663   -0.6087 C   0  0  1  0  0  0  0  0  0  0  0  0
   22.8294   73.2225   -1.2098 C   0  0  1  0  0  0  0  0  0  0  0  0
   20.7530   73.0095    0.1911 C   0  0  2  0  0  0  0  0  0  0  0  0
   22.3784   71.9530   -1.9448 C   0  0  1  0  0  0  0  0  0  0  0  0
   20.4021   71.7576   -0.6148 C   0  0  1  0  0  0  0  0  0  0  0  0
   22.6944   75.5941   -0.2368 H   0  0  0  0  0  0  0  0  0  0  0  0
   23.7722   74.9045   -1.6320 H   0  0  0  0  0  0  0  0  0  0  0  0
   19.8023   74.4764    1.1027 H   0  0  0  0  0  0  0  0  0  0  0  0
   24.5082   71.0387   -1.3643 O   0  0  0  0  0  0  0  0  0  0  0  0
   23.5638   71.1136   -2.4164 C   0  0  0  0  0  0  0  0  0  0  0  0
   25.2681   70.5070   -1.6500 H   0  0  0  0  0  0  0  0  0  0  0  0
 25 28  1  0
 25 24  1  0
 25 26  1  1
 25 27  2  0
  1  4  1  0
  1 24  1  0
  1  2  1  6
  1  3  2  0
  6 11  1  0
  6 12  1  0
 29 36  1  0
 29 37  1  0
  9  7  1  6
  7 13  1  0
 10  8  1  6
  8 14  1  0
 37 28  1  6
  4  5  1  0
 33 30  1  1
 30 38  1  0
 34 31  1  6
 31 39  1  0
 35 32  1  6
 32 40  1  0
 41 42  1  0
 41 43  1  0
 15 19  2  0
 16 22  2  0
 12 17  1  1
 17 19  1  0
 17 20  1  0
 18 19  1  0
 18 22  1  0
 18 23  1  0
  9 10  1  0
  9 11  1  0
 10 12  1  0
 11  5  1  1
 33 34  1  0
 33 35  1  0
 34 36  1  0
 35 37  1  0
 36 42  1  1
 20 21  2  0
 21 22  1  0
M  CHG  2   2  -1  26  -1
M  END
>  <COMPND>  (8) 
    8629 

>  <AUTHOR>  (8) 
    GENERATED BY OPEN BABEL 3.1.1

>  <MASTER>  (8) 
        0    0    0    0    0    0    0    0   58    0   58    0

>  <minimizedAffinity>  (8) 
-7.58545

>  <CNNscore>  (8) 
0.4814904332

>  <CNNaffinity>  (8) 
4.1626830101

>  <CNN_VS>  (8) 
2.0042920113

>  <CNNaffinity_variance>  (8) 
0.1801385432

$$$$
9
     RDKit          3D

 43 45  0  0  0  0  0  0  0  0999 V2000
   17.9365   72.3110   -1.1280 P   0  0  2  0  0  0  0  0  0  0  0  0
   16.3229   72.1960   -1.1120 O   0  0  0  0  0  0  0  0  0  0  0  0
   18.5527   72.7598    0.1645 O   0  0  0  0  0  0  0  0  0  0  0  0
   18.2469   73.2415   -2.4147 O   0  0  0  0  0  0  0  0  0  0  0  0
   17.1652   73.9025   -3.0478 C   0  0  0  0  0  0  0  0  0  0  0  0
   17.9073   72.5660   -4.9016 O   0  0  0  0  0  0  0  0  0  0  0  0
   16.4114   74.4914   -6.6469 O   0  0  0  0  0  0  0  0  0  0  0  0
   14.7040   72.3699   -6.5027 O   0  0  0  0  0  0  0  0  0  0  0  0
   16.0797   74.0075   -5.3464 C   0  0  1  0  0  0  0  0  0  0  0  0
   15.5961   72.5746   -5.4261 C   0  0  2  0  0  0  0  0  0  0  0  0
   17.3739   73.8629   -4.5555 C   0  0  1  0  0  0  0  0  0  0  0  0
   16.8989   71.8111   -5.5932 C   0  0  2  0  0  0  0  0  0  0  0  0
   15.6006   74.5921   -7.1707 H   0  0  0  0  0  0  0  0  0  0  0  0
   13.8909   72.8761   -6.3497 H   0  0  0  0  0  0  0  0  0  0  0  0
   18.3018   69.5777   -6.6038 O   0  0  0  0  0  0  0  0  0  0  0  0
   16.5823   66.7970   -3.3554 O   0  0  0  0  0  0  0  0  0  0  0  0
   16.8365   70.4916   -5.0308 N   0  0  0  0  0  0  0  0  0  0  0  0
   17.4447   68.1950   -4.9854 N   0  0  0  0  0  0  0  0  0  0  0  0
   17.5791   69.4391   -5.6148 C   0  0  0  0  0  0  0  0  0  0  0  0
   16.0457   70.2517   -3.9123 C   0  0  0  0  0  0  0  0  0  0  0  0
   15.9272   69.0592   -3.3248 C   0  0  0  0  0  0  0  0  0  0  0  0
   16.6704   67.9062   -3.8729 C   0  0  0  0  0  0  0  0  0  0  0  0
   17.9526   67.4467   -5.3751 H   0  0  0  0  0  0  0  0  0  0  0  0
   18.4007   70.8431   -1.6206 O   0  0  0  0  0  0  0  0  0  0  0  0
   19.8732   70.2075   -1.8224 P   0  0  2  0  0  0  0  0  0  0  0  0
   19.7187   69.3360   -3.1767 O   0  0  0  0  0  0  0  0  0  0  0  0
   20.3754   69.4306   -0.6400 O   0  0  0  0  0  0  0  0  0  0  0  0
   20.8030   71.4570   -2.2457 O   0  0  0  0  0  0  0  0  0  0  0  0
   22.5979   71.5692   -3.7891 O   0  0  0  0  0  0  0  0  0  0  0  0
   24.0274   74.1767   -0.9240 O   0  0  0  0  0  0  0  0  0  0  0  0
   23.0816   75.2062   -3.4327 O   0  0  0  0  0  0  0  0  0  0  0  0
   22.6059   71.7864   -0.1205 O   0  0  0  0  0  0  0  0  0  0  0  0
   23.0263   73.5372   -1.7204 C   0  0  1  0  0  0  0  0  0  0  0  0
   23.3291   73.8237   -3.1924 C   0  0  1  0  0  0  0  0  0  0  0  0
   23.0564   72.0344   -1.4479 C   0  0  2  0  0  0  0  0  0  0  0  0
   22.4616   72.9573   -4.1154 C   0  0  1  0  0  0  0  0  0  0  0  0
   22.1995   71.2611   -2.4518 C   0  0  1  0  0  0  0  0  0  0  0  0
   24.0132   75.1312   -1.0919 H   0  0  0  0  0  0  0  0  0  0  0  0
   23.6352   75.7423   -2.8433 H   0  0  0  0  0  0  0  0  0  0  0  0
   23.1565   72.2813    0.5054 H   0  0  0  0  0  0  0  0  0  0  0  0
   24.2378   73.4154   -5.6464 O   0  0  0  0  0  0  0  0  0  0  0  0
   22.8566   73.1115   -5.5824 C   0  0  0  0  0  0  0  0  0  0  0  0
   24.5035   73.5161   -6.5743 H   0  0  0  0  0  0  0  0  0  0  0  0
 25 28  1  0
 25 24  1  0
 25 26  1  6
 25 27  2  0
  1  4  1  0
  1 24  1  0
  1  2  1  1
  1  3  2  0
  6 11  1  0
  6 12  1  0
 29 36  1  0
 29 37  1  0
  9  7  1  6
  7 13  1  0
 10  8  1  6
  8 14  1  0
 37 28  1  6
  4  5  1  0
 33 30  1  1
 30 38  1  0
 34 31  1  6
 31 39  1  0
 35 32  1  1
 32 40  1  0
 41 42  1  0
 41 43  1  0
 15 19  2  0
 16 22  2  0
 12 17  1  1
 17 19  1  0
 17 20  1  0
 18 19  1  0
 18 22  1  0
 18 23  1  0
  9 10  1  0
  9 11  1  0
 10 12  1  0
 11  5  1  1
 33 34  1  0
 33 35  1  0
 34 36  1  0
 35 37  1  0
 36 42  1  6
 20 21  2  0
 21 22  1  0
M  CHG  2   2  -1  26  -1
M  END
>  <COMPND>  (9) 
    8629 

>  <AUTHOR>  (9) 
    GENERATED BY OPEN BABEL 3.1.1

>  <MASTER>  (9) 
        0    0    0    0    0    0    0    0   58    0   58    0

>  <minimizedAffinity>  (9) 
-6.41822

>  <CNNscore>  (9) 
0.4345376492

>  <CNNaffinity>  (9) 
3.9595482349

>  <CNN_VS>  (9) 
1.7205728292

>  <CNNaffinity_variance>  (9) 
0.4519961774

$$$$
10
     RDKit          3D

 43 45  0  0  0  0  0  0  0  0999 V2000
   21.8594   71.4948   -2.9757 P   0  0  2  0  0  0  0  0  0  0  0  0
   23.2318   70.6658   -3.1915 O   0  0  0  0  0  0  0  0  0  0  0  0
   21.4641   71.7046   -1.5435 O   0  0  0  0  0  0  0  0  0  0  0  0
   20.7830   70.7098   -3.8939 O   0  0  0  0  0  0  0  0  0  0  0  0
   20.2008   69.5216   -3.3869 C   0  0  0  0  0  0  0  0  0  0  0  0
   18.1968   70.5679   -4.2010 O   0  0  0  0  0  0  0  0  0  0  0  0
   16.7125   68.7460   -2.3387 O   0  0  0  0  0  0  0  0  0  0  0  0
   16.3996   67.5133   -4.7509 O   0  0  0  0  0  0  0  0  0  0  0  0
   17.8921   68.4918   -3.0998 C   0  0  1  0  0  0  0  0  0  0  0  0
   17.5459   68.3182   -4.5639 C   0  0  2  0  0  0  0  0  0  0  0  0
   18.7227   69.7690   -3.1187 C   0  0  1  0  0  0  0  0  0  0  0  0
   17.3307   69.7546   -5.0093 C   0  0  2  0  0  0  0  0  0  0  0  0
   16.1661   67.9444   -2.3121 H   0  0  0  0  0  0  0  0  0  0  0  0
   16.5868   66.6095   -4.4529 H   0  0  0  0  0  0  0  0  0  0  0  0
   15.7698   71.2584   -6.8205 O   0  0  0  0  0  0  0  0  0  0  0  0
   18.6916   70.4520  -10.2924 O   0  0  0  0  0  0  0  0  0  0  0  0
   17.6602   69.9544   -6.3924 N   0  0  0  0  0  0  0  0  0  0  0  0
   17.2260   70.8558   -8.5477 N   0  0  0  0  0  0  0  0  0  0  0  0
   16.8085   70.7258   -7.2170 C   0  0  0  0  0  0  0  0  0  0  0  0
   18.8168   69.3888   -6.9179 C   0  0  0  0  0  0  0  0  0  0  0  0
   19.2002   69.5212   -8.1894 C   0  0  0  0  0  0  0  0  0  0  0  0
   18.3663   70.3118   -9.1175 C   0  0  0  0  0  0  0  0  0  0  0  0
   16.6481   71.3886   -9.1409 H   0  0  0  0  0  0  0  0  0  0  0  0
   22.1223   72.8558   -3.8073 O   0  0  0  0  0  0  0  0  0  0  0  0
   21.7516   74.3931   -3.4720 P   0  0  2  0  0  0  0  0  0  0  0  0
   23.0567   75.2073   -3.9731 O   0  0  0  0  0  0  0  0  0  0  0  0
   21.3817   74.6382   -2.0378 O   0  0  0  0  0  0  0  0  0  0  0  0
   20.5990   74.7765   -4.5349 O   0  0  0  0  0  0  0  0  0  0  0  0
   18.2620   74.8597   -4.1502 O   0  0  0  0  0  0  0  0  0  0  0  0
   18.2375   73.7014   -8.1136 O   0  0  0  0  0  0  0  0  0  0  0  0
   17.4681   76.3784   -7.4140 O   0  0  0  0  0  0  0  0  0  0  0  0
   20.2336   72.6335   -6.3095 O   0  0  0  0  0  0  0  0  0  0  0  0
   18.7254   74.3946   -6.9617 C   0  0  1  0  0  0  0  0  0  0  0  0
   17.6225   75.3296   -6.4618 C   0  0  1  0  0  0  0  0  0  0  0  0
   19.0953   73.3757   -5.8854 C   0  0  2  0  0  0  0  0  0  0  0  0
   17.9684   75.9067   -5.0826 C   0  0  1  0  0  0  0  0  0  0  0  0
   19.3728   74.0501   -4.5407 C   0  0  1  0  0  0  0  0  0  0  0  0
   18.0014   74.3426   -8.8010 H   0  0  0  0  0  0  0  0  0  0  0  0
   17.2504   76.0006   -8.2806 H   0  0  0  0  0  0  0  0  0  0  0  0
   20.0451   72.2113   -7.1616 H   0  0  0  0  0  0  0  0  0  0  0  0
   15.6459   76.4434   -5.2471 O   0  0  0  0  0  0  0  0  0  0  0  0
   16.8142   76.7161   -4.4954 C   0  0  0  0  0  0  0  0  0  0  0  0
   14.9029   76.9515   -4.8846 H   0  0  0  0  0  0  0  0  0  0  0  0
 25 28  1  0
 25 24  1  0
 25 26  1  6
 25 27  2  0
  1  4  1  0
  1 24  1  0
  1  2  1  1
  1  3  2  0
  6 11  1  0
  6 12  1  0
 29 36  1  0
 29 37  1  0
  9  7  1  1
  7 13  1  0
 10  8  1  1
  8 14  1  0
 37 28  1  6
  4  5  1  0
 33 30  1  6
 30 38  1  0
 34 31  1  6
 31 39  1  0
 35 32  1  6
 32 40  1  0
 41 42  1  0
 41 43  1  0
 15 19  2  0
 16 22  2  0
 12 17  1  6
 17 19  1  0
 17 20  1  0
 18 19  1  0
 18 22  1  0
 18 23  1  0
  9 10  1  0
  9 11  1  0
 10 12  1  0
 11  5  1  6
 33 34  1  0
 33 35  1  0
 34 36  1  0
 35 37  1  0
 36 42  1  1
 20 21  2  0
 21 22  1  0
M  CHG  2   2  -1  26  -1
M  END
>  <COMPND>  (10) 
    8629 

>  <AUTHOR>  (10) 
    GENERATED BY OPEN BABEL 3.1.1

>  <MASTER>  (10) 
        0    0    0    0    0    0    0    0   58    0   58    0

>  <minimizedAffinity>  (10) 
-6.62351

>  <CNNscore>  (10) 
0.3880626559

>  <CNNaffinity>  (10) 
4.2025489807

>  <CNN_VS>  (10) 
1.6308523417

>  <CNNaffinity_variance>  (10) 
0.3440271318

$$$$
11
     RDKit          3D

 43 45  0  0  0  0  0  0  0  0999 V2000
   19.2277   70.5288   -1.3701 P   0  0  2  0  0  0  0  0  0  0  0  0
   20.3215   69.4978   -0.7718 O   0  0  0  0  0  0  0  0  0  0  0  0
   19.6085   71.1723   -2.6710 O   0  0  0  0  0  0  0  0  0  0  0  0
   18.9376   71.5427   -0.1430 O   0  0  0  0  0  0  0  0  0  0  0  0
   18.3060   72.7798   -0.4231 C   0  0  0  0  0  0  0  0  0  0  0  0
   20.4701   73.4315    0.3928 O   0  0  0  0  0  0  0  0  0  0  0  0
   19.5025   76.2593    0.1517 O   0  0  0  0  0  0  0  0  0  0  0  0
   21.0358   75.9630   -2.0839 O   0  0  0  0  0  0  0  0  0  0  0  0
   19.2270   75.1370   -0.6849 C   0  0  1  0  0  0  0  0  0  0  0  0
   20.4349   74.8070   -1.5368 C   0  0  2  0  0  0  0  0  0  0  0  0
   19.1184   73.9044    0.2041 C   0  0  1  0  0  0  0  0  0  0  0  0
   21.3362   74.0943   -0.5428 C   0  0  2  0  0  0  0  0  0  0  0  0
   19.5759   77.0587   -0.3938 H   0  0  0  0  0  0  0  0  0  0  0  0
   20.4236   76.3805   -2.7097 H   0  0  0  0  0  0  0  0  0  0  0  0
   22.9605   72.2537    0.8542 O   0  0  0  0  0  0  0  0  0  0  0  0
   24.5304   70.3902   -3.0578 O   0  0  0  0  0  0  0  0  0  0  0  0
   22.1792   73.1166   -1.1712 N   0  0  0  0  0  0  0  0  0  0  0  0
   23.7407   71.3272   -1.0948 N   0  0  0  0  0  0  0  0  0  0  0  0
   22.9561   72.2399   -0.3785 C   0  0  0  0  0  0  0  0  0  0  0  0
   22.2296   73.0340   -2.5584 C   0  0  0  0  0  0  0  0  0  0  0  0
   22.9840   72.1587   -3.2263 C   0  0  0  0  0  0  0  0  0  0  0  0
   23.8257   71.2069   -2.4729 C   0  0  0  0  0  0  0  0  0  0  0  0
   24.2907   70.7066   -0.5636 H   0  0  0  0  0  0  0  0  0  0  0  0
   17.8814   69.6361   -1.4298 O   0  0  0  0  0  0  0  0  0  0  0  0
   17.1589   68.8862   -2.6662 P   0  0  2  0  0  0  0  0  0  0  0  0
   15.6047   68.8455   -2.2184 O   0  0  0  0  0  0  0  0  0  0  0  0
   17.7431   67.5436   -2.9979 O   0  0  0  0  0  0  0  0  0  0  0  0
   17.2067   69.9538   -3.8757 O   0  0  0  0  0  0  0  0  0  0  0  0
   16.3354   70.0960   -6.0751 O   0  0  0  0  0  0  0  0  0  0  0  0
   20.2297   71.2409   -6.8329 O   0  0  0  0  0  0  0  0  0  0  0  0
   18.1334   73.2021   -6.9167 O   0  0  0  0  0  0  0  0  0  0  0  0
   19.6886   69.1477   -4.9080 O   0  0  0  0  0  0  0  0  0  0  0  0
   19.0234   71.1498   -6.0701 C   0  0  1  0  0  0  0  0  0  0  0  0
   17.8961   71.7977   -6.8764 C   0  0  1  0  0  0  0  0  0  0  0  0
   18.7139   69.6786   -5.7994 C   0  0  2  0  0  0  0  0  0  0  0  0
   16.5268   71.5050   -6.2484 C   0  0  1  0  0  0  0  0  0  0  0  0
   17.3099   69.4940   -5.2208 C   0  0  1  0  0  0  0  0  0  0  0  0
   20.4322   72.1725   -7.0079 H   0  0  0  0  0  0  0  0  0  0  0  0
   19.0013   73.3733   -7.3150 H   0  0  0  0  0  0  0  0  0  0  0  0
   20.5730   69.2704   -5.2857 H   0  0  0  0  0  0  0  0  0  0  0  0
   15.8467   72.1347   -8.4506 O   0  0  0  0  0  0  0  0  0  0  0  0
   15.3784   72.0072   -7.1206 C   0  0  0  0  0  0  0  0  0  0  0  0
   15.1262   72.4533   -9.0173 H   0  0  0  0  0  0  0  0  0  0  0  0
 25 28  1  0
 25 24  1  0
 25 26  1  1
 25 27  2  0
  1  4  1  0
  1 24  1  0
  1  2  1  1
  1  3  2  0
  6 11  1  0
  6 12  1  0
 29 36  1  0
 29 37  1  0
  9  7  1  1
  7 13  1  0
 10  8  1  1
  8 14  1  0
 37 28  1  1
  4  5  1  0
 33 30  1  6
 30 38  1  0
 34 31  1  1
 31 39  1  0
 35 32  1  1
 32 40  1  0
 41 42  1  0
 41 43  1  0
 15 19  2  0
 16 22  2  0
 12 17  1  6
 17 19  1  0
 17 20  1  0
 18 19  1  0
 18 22  1  0
 18 23  1  0
  9 10  1  0
  9 11  1  0
 10 12  1  0
 11  5  1  6
 33 34  1  0
 33 35  1  0
 34 36  1  0
 35 37  1  0
 36 42  1  6
 20 21  2  0
 21 22  1  0
M  CHG  2   2  -1  26  -1
M  END
>  <COMPND>  (11) 
    8629 

>  <AUTHOR>  (11) 
    GENERATED BY OPEN BABEL 3.1.1

>  <MASTER>  (11) 
        0    0    0    0    0    0    0    0   58    0   58    0

>  <minimizedAffinity>  (11) 
-7.61854

>  <CNNscore>  (11) 
0.3798800707

>  <CNNaffinity>  (11) 
3.9654262066

>  <CNN_VS>  (11) 
1.5063863993

>  <CNNaffinity_variance>  (11) 
0.5784479976

$$$$
12
     RDKit          3D

 43 45  0  0  0  0  0  0  0  0999 V2000
   18.2037   69.5162   -2.1808 P   0  0  2  0  0  0  0  0  0  0  0  0
   16.9661   68.5370   -1.8242 O   0  0  0  0  0  0  0  0  0  0  0  0
   19.4579   68.8186   -2.6188 O   0  0  0  0  0  0  0  0  0  0  0  0
   18.3436   70.4576   -0.8723 O   0  0  0  0  0  0  0  0  0  0  0  0
   17.8555   71.7861   -0.9399 C   0  0  0  0  0  0  0  0  0  0  0  0
   19.8465   72.1157    0.3643 O   0  0  0  0  0  0  0  0  0  0  0  0
   18.7386   74.8217    1.0283 O   0  0  0  0  0  0  0  0  0  0  0  0
   20.5692   75.3886   -0.9118 O   0  0  0  0  0  0  0  0  0  0  0  0
   18.6488   74.0841   -0.1896 C   0  0  1  0  0  0  0  0  0  0  0  0
   19.9773   74.1055   -0.9164 C   0  0  2  0  0  0  0  0  0  0  0  0
   18.5038   72.6094    0.1647 C   0  0  1  0  0  0  0  0  0  0  0  0
   20.7837   73.0868   -0.1290 C   0  0  2  0  0  0  0  0  0  0  0  0
   18.8315   75.7667    0.8276 H   0  0  0  0  0  0  0  0  0  0  0  0
   20.0191   76.0005   -1.4255 H   0  0  0  0  0  0  0  0  0  0  0  0
   23.3996   72.4541    0.7282 O   0  0  0  0  0  0  0  0  0  0  0  0
   24.4579   70.5274   -3.3226 O   0  0  0  0  0  0  0  0  0  0  0  0
   21.7636   72.4197   -0.9390 N   0  0  0  0  0  0  0  0  0  0  0  0
   23.9244   71.4951   -1.2894 N   0  0  0  0  0  0  0  0  0  0  0  0
   23.0487   72.1496   -0.4137 C   0  0  0  0  0  0  0  0  0  0  0  0
   21.4463   72.0402   -2.2387 C   0  0  0  0  0  0  0  0  0  0  0  0
   22.2931   71.4179   -3.0614 C   0  0  0  0  0  0  0  0  0  0  0  0
   23.6561   71.0988   -2.5901 C   0  0  0  0  0  0  0  0  0  0  0  0
   24.8255   71.2970   -0.9453 H   0  0  0  0  0  0  0  0  0  0  0  0
   17.5705   70.5161   -3.2818 O   0  0  0  0  0  0  0  0  0  0  0  0
   16.3642   70.3062   -4.3371 P   0  0  2  0  0  0  0  0  0  0  0  0
   15.0935   70.9668   -3.5845 O   0  0  0  0  0  0  0  0  0  0  0  0
   16.1597   68.8810   -4.7626 O   0  0  0  0  0  0  0  0  0  0  0  0
   16.6966   71.3237   -5.5451 O   0  0  0  0  0  0  0  0  0  0  0  0
   18.6563   70.9097   -6.8120 O   0  0  0  0  0  0  0  0  0  0  0  0
   18.0040   74.8466   -7.8733 O   0  0  0  0  0  0  0  0  0  0  0  0
   17.4980   72.7610   -9.7818 O   0  0  0  0  0  0  0  0  0  0  0  0
   17.5065   73.9822   -5.1558 O   0  0  0  0  0  0  0  0  0  0  0  0
   17.6275   73.5141   -7.5153 C   0  0  1  0  0  0  0  0  0  0  0  0
   18.2027   72.5561   -8.5605 C   0  0  1  0  0  0  0  0  0  0  0  0
   18.1831   73.1938   -6.1289 C   0  0  2  0  0  0  0  0  0  0  0  0
   18.0708   71.0963   -8.1059 C   0  0  1  0  0  0  0  0  0  0  0  0
   18.0463   71.7072   -5.7952 C   0  0  1  0  0  0  0  0  0  0  0  0
   17.6539   75.0564   -8.7525 H   0  0  0  0  0  0  0  0  0  0  0  0
   17.5889   73.6867  -10.0576 H   0  0  0  0  0  0  0  0  0  0  0  0
   17.6007   74.9211   -5.3781 H   0  0  0  0  0  0  0  0  0  0  0  0
   18.0015   70.0167  -10.2363 O   0  0  0  0  0  0  0  0  0  0  0  0
   18.7780   70.1346   -9.0584 C   0  0  0  0  0  0  0  0  0  0  0  0
   18.4396   69.4078  -10.8520 H   0  0  0  0  0  0  0  0  0  0  0  0
 25 28  1  0
 25 24  1  0
 25 26  1  1
 25 27  2  0
  1  4  1  0
  1 24  1  0
  1  2  1  1
  1  3  2  0
  6 11  1  0
  6 12  1  0
 29 36  1  0
 29 37  1  0
  9  7  1  1
  7 13  1  0
 10  8  1  1
  8 14  1  0
 37 28  1  6
  4  5  1  0
 33 30  1  6
 30 38  1  0
 34 31  1  6
 31 39  1  0
 35 32  1  1
 32 40  1  0
 41 42  1  0
 41 43  1  0
 15 19  2  0
 16 22  2  0
 12 17  1  6
 17 19  1  0
 17 20  1  0
 18 19  1  0
 18 22  1  0
 18 23  1  0
  9 10  1  0
  9 11  1  0
 10 12  1  0
 11  5  1  6
 33 34  1  0
 33 35  1  0
 34 36  1  0
 35 37  1  0
 36 42  1  6
 20 21  2  0
 21 22  1  0
M  CHG  2   2  -1  26  -1
M  END
>  <COMPND>  (12) 
    8629 

>  <AUTHOR>  (12) 
    GENERATED BY OPEN BABEL 3.1.1

>  <MASTER>  (12) 
        0    0    0    0    0    0    0    0   58    0   58    0

>  <minimizedAffinity>  (12) 
-7.45867

>  <CNNscore>  (12) 
0.3756397963

>  <CNNaffinity>  (12) 
3.9020133018

>  <CNN_VS>  (12) 
1.4657515287

>  <CNNaffinity_variance>  (12) 
0.5724333525

$$$$
13
     RDKit          3D

 43 45  0  0  0  0  0  0  0  0999 V2000
   22.0036   71.0425   -1.9154 P   0  0  2  0  0  0  0  0  0  0  0  0
   23.0910   70.7016   -3.0637 O   0  0  0  0  0  0  0  0  0  0  0  0
   22.5418   71.0493   -0.5148 O   0  0  0  0  0  0  0  0  0  0  0  0
   20.7986   70.0010   -2.2001 O   0  0  0  0  0  0  0  0  0  0  0  0
   20.1512   70.0439   -3.4598 C   0  0  0  0  0  0  0  0  0  0  0  0
   18.0722   70.8214   -4.3801 O   0  0  0  0  0  0  0  0  0  0  0  0
   16.7359   68.9535   -2.4523 O   0  0  0  0  0  0  0  0  0  0  0  0
   16.6285   67.5648   -4.7968 O   0  0  0  0  0  0  0  0  0  0  0  0
   17.9580   68.7875   -3.1693 C   0  0  1  0  0  0  0  0  0  0  0  0
   17.6762   68.4980   -4.6288 C   0  0  2  0  0  0  0  0  0  0  0  0
   18.6478   70.1441   -3.2415 C   0  0  1  0  0  0  0  0  0  0  0  0
   17.3223   69.8764   -5.1608 C   0  0  2  0  0  0  0  0  0  0  0  0
   16.2776   68.1001   -2.3929 H   0  0  0  0  0  0  0  0  0  0  0  0
   16.9021   66.7042   -4.4430 H   0  0  0  0  0  0  0  0  0  0  0  0
   15.7455   71.2579   -7.0537 O   0  0  0  0  0  0  0  0  0  0  0  0
   18.7539   70.4205  -10.4432 O   0  0  0  0  0  0  0  0  0  0  0  0
   17.6698   70.0351   -6.5448 N   0  0  0  0  0  0  0  0  0  0  0  0
   17.2448   70.8400   -8.7398 N   0  0  0  0  0  0  0  0  0  0  0  0
   16.8080   70.7460   -7.4123 C   0  0  0  0  0  0  0  0  0  0  0  0
   18.8537   69.4894   -7.0291 C   0  0  0  0  0  0  0  0  0  0  0  0
   19.2552   69.5868   -8.2982 C   0  0  0  0  0  0  0  0  0  0  0  0
   18.4124   70.3136   -9.2694 C   0  0  0  0  0  0  0  0  0  0  0  0
   16.6604   71.3305   -9.3624 H   0  0  0  0  0  0  0  0  0  0  0  0
   21.3873   72.4541   -2.4061 O   0  0  0  0  0  0  0  0  0  0  0  0
   21.9661   73.9595   -2.2994 P   0  0  2  0  0  0  0  0  0  0  0  0
   23.4458   73.7452   -1.6813 O   0  0  0  0  0  0  0  0  0  0  0  0
   21.0971   74.8988   -1.5143 O   0  0  0  0  0  0  0  0  0  0  0  0
   22.2240   74.4073   -3.8285 O   0  0  0  0  0  0  0  0  0  0  0  0
   20.7342   74.2848   -5.6676 O   0  0  0  0  0  0  0  0  0  0  0  0
   24.2890   73.5908   -7.6507 O   0  0  0  0  0  0  0  0  0  0  0  0
   22.9505   76.1104   -7.9793 O   0  0  0  0  0  0  0  0  0  0  0  0
   23.8591   72.4625   -5.0198 O   0  0  0  0  0  0  0  0  0  0  0  0
   23.4442   74.1789   -6.6578 C   0  0  1  0  0  0  0  0  0  0  0  0
   22.3471   74.9722   -7.3704 C   0  0  1  0  0  0  0  0  0  0  0  0
   22.8358   73.0709   -5.8002 C   0  0  2  0  0  0  0  0  0  0  0  0
   21.2524   75.4094   -6.3877 C   0  0  1  0  0  0  0  0  0  0  0  0
   21.7242   73.6038   -4.8943 C   0  0  1  0  0  0  0  0  0  0  0  0
   24.6789   74.2890   -8.1984 H   0  0  0  0  0  0  0  0  0  0  0  0
   23.6402   75.8206   -8.5971 H   0  0  0  0  0  0  0  0  0  0  0  0
   24.5566   72.1290   -5.6048 H   0  0  0  0  0  0  0  0  0  0  0  0
   19.1971   75.0464   -7.5509 O   0  0  0  0  0  0  0  0  0  0  0  0
   20.0719   76.0647   -7.1011 C   0  0  0  0  0  0  0  0  0  0  0  0
   18.4408   75.4488   -8.0067 H   0  0  0  0  0  0  0  0  0  0  0  0
 25 28  1  0
 25 24  1  0
 25 26  1  1
 25 27  2  0
  1  4  1  0
  1 24  1  0
  1  2  1  6
  1  3  2  0
  6 11  1  0
  6 12  1  0
 29 36  1  0
 29 37  1  0
  9  7  1  1
  7 13  1  0
 10  8  1  1
  8 14  1  0
 37 28  1  1
  4  5  1  0
 33 30  1  6
 30 38  1  0
 34 31  1  1
 31 39  1  0
 35 32  1  1
 32 40  1  0
 41 42  1  0
 41 43  1  0
 15 19  2  0
 16 22  2  0
 12 17  1  6
 17 19  1  0
 17 20  1  0
 18 19  1  0
 18 22  1  0
 18 23  1  0
  9 10  1  0
  9 11  1  0
 10 12  1  0
 11  5  1  6
 33 34  1  0
 33 35  1  0
 34 36  1  0
 35 37  1  0
 36 42  1  6
 20 21  2  0
 21 22  1  0
M  CHG  2   2  -1  26  -1
M  END
>  <COMPND>  (13) 
    8629 

>  <AUTHOR>  (13) 
    GENERATED BY OPEN BABEL 3.1.1

>  <MASTER>  (13) 
        0    0    0    0    0    0    0    0   58    0   58    0

>  <minimizedAffinity>  (13) 
-7.92569

>  <CNNscore>  (13) 
0.3713725805

>  <CNNaffinity>  (13) 
4.2054681778

>  <CNN_VS>  (13) 
1.5617955923

>  <CNNaffinity_variance>  (13) 
0.5906923413

$$$$
14
     RDKit          3D

 43 45  0  0  0  0  0  0  0  0999 V2000
   19.0121   70.6969   -1.7467 P   0  0  2  0  0  0  0  0  0  0  0  0
   18.4805   71.9677   -0.8983 O   0  0  0  0  0  0  0  0  0  0  0  0
   19.4665   69.5292   -0.9212 O   0  0  0  0  0  0  0  0  0  0  0  0
   20.1218   71.3296   -2.7397 O   0  0  0  0  0  0  0  0  0  0  0  0
   20.6681   72.5980   -2.4228 C   0  0  0  0  0  0  0  0  0  0  0  0
   23.0380   72.9356   -2.2147 O   0  0  0  0  0  0  0  0  0  0  0  0
   22.6486   72.5274    0.7302 O   0  0  0  0  0  0  0  0  0  0  0  0
   22.8292   75.2407    0.5250 O   0  0  0  0  0  0  0  0  0  0  0  0
   21.7917   73.1693   -0.2127 C   0  0  1  0  0  0  0  0  0  0  0  0
   22.3514   74.5236   -0.5950 C   0  0  2  0  0  0  0  0  0  0  0  0
   21.8841   72.4044   -1.5272 C   0  0  1  0  0  0  0  0  0  0  0  0
   23.4595   74.1448   -1.5628 C   0  0  2  0  0  0  0  0  0  0  0  0
   22.6062   72.9980    1.5780 H   0  0  0  0  0  0  0  0  0  0  0  0
   22.0870   75.4584    1.1103 H   0  0  0  0  0  0  0  0  0  0  0  0
   25.0691   76.4328   -1.1726 O   0  0  0  0  0  0  0  0  0  0  0  0
   24.2614   77.9553   -5.4470 O   0  0  0  0  0  0  0  0  0  0  0  0
   23.6875   75.1553   -2.5569 N   0  0  0  0  0  0  0  0  0  0  0  0
   24.6657   77.1889   -3.3013 N   0  0  0  0  0  0  0  0  0  0  0  0
   24.5120   76.2654   -2.2594 C   0  0  0  0  0  0  0  0  0  0  0  0
   23.0971   75.0398   -3.8107 C   0  0  0  0  0  0  0  0  0  0  0  0
   23.2527   75.9298   -4.7929 C   0  0  0  0  0  0  0  0  0  0  0  0
   24.0987   77.1189   -4.5639 C   0  0  0  0  0  0  0  0  0  0  0  0
   25.2355   77.9706   -3.1168 H   0  0  0  0  0  0  0  0  0  0  0  0
   17.7759   70.3791   -2.7385 O   0  0  0  0  0  0  0  0  0  0  0  0
   17.4033   69.0490   -3.5780 P   0  0  2  0  0  0  0  0  0  0  0  0
   15.7980   68.9405   -3.4081 O   0  0  0  0  0  0  0  0  0  0  0  0
   18.1555   67.8215   -3.1519 O   0  0  0  0  0  0  0  0  0  0  0  0
   17.6226   69.4654   -5.1219 O   0  0  0  0  0  0  0  0  0  0  0  0
   18.9795   71.0644   -6.2258 O   0  0  0  0  0  0  0  0  0  0  0  0
   15.4673   71.6172   -8.3257 O   0  0  0  0  0  0  0  0  0  0  0  0
   17.6823   70.2968   -9.5899 O   0  0  0  0  0  0  0  0  0  0  0  0
   15.3823   71.1180   -5.4756 O   0  0  0  0  0  0  0  0  0  0  0  0
   16.4570   70.8670   -7.6165 C   0  0  1  0  0  0  0  0  0  0  0  0
   17.7876   71.0064   -8.3588 C   0  0  1  0  0  0  0  0  0  0  0  0
   16.5744   71.4141   -6.1951 C   0  0  2  0  0  0  0  0  0  0  0  0
   18.9494   70.4547   -7.5216 C   0  0  1  0  0  0  0  0  0  0  0  0
   17.7901   70.8381   -5.4668 C   0  0  1  0  0  0  0  0  0  0  0  0
   15.3874   71.2746   -9.2289 H   0  0  0  0  0  0  0  0  0  0  0  0
   16.9448   70.6546  -10.1087 H   0  0  0  0  0  0  0  0  0  0  0  0
   14.6201   71.4882   -5.9467 H   0  0  0  0  0  0  0  0  0  0  0  0
   20.8339   71.9196   -7.6283 O   0  0  0  0  0  0  0  0  0  0  0  0
   20.3034   70.7257   -8.1737 C   0  0  0  0  0  0  0  0  0  0  0  0
   21.6959   72.1045   -8.0339 H   0  0  0  0  0  0  0  0  0  0  0  0
 25 28  1  0
 25 24  1  0
 25 26  1  6
 25 27  2  0
  1  4  1  0
  1 24  1  0
  1  2  1  1
  1  3  2  0
  6 11  1  0
  6 12  1  0
 29 36  1  0
 29 37  1  0
  9  7  1  1
  7 13  1  0
 10  8  1  1
  8 14  1  0
 37 28  1  6
  4  5  1  0
 33 30  1  6
 30 38  1  0
 34 31  1  6
 31 39  1  0
 35 32  1  1
 32 40  1  0
 41 42  1  0
 41 43  1  0
 15 19  2  0
 16 22  2  0
 12 17  1  6
 17 19  1  0
 17 20  1  0
 18 19  1  0
 18 22  1  0
 18 23  1  0
  9 10  1  0
  9 11  1  0
 10 12  1  0
 11  5  1  6
 33 34  1  0
 33 35  1  0
 34 36  1  0
 35 37  1  0
 36 42  1  6
 20 21  2  0
 21 22  1  0
M  CHG  2   2  -1  26  -1
M  END
>  <COMPND>  (14) 
    8629 

>  <AUTHOR>  (14) 
    GENERATED BY OPEN BABEL 3.1.1

>  <MASTER>  (14) 
        0    0    0    0    0    0    0    0   58    0   58    0

>  <minimizedAffinity>  (14) 
-7.09743

>  <CNNscore>  (14) 
0.3577609360

>  <CNNaffinity>  (14) 
4.1129651070

>  <CNN_VS>  (14) 
1.4714581966

>  <CNNaffinity_variance>  (14) 
0.1114493161

$$$$
15
     RDKit          3D

 43 45  0  0  0  0  0  0  0  0999 V2000
   21.6144   72.8213   -6.1086 P   0  0  2  0  0  0  0  0  0  0  0  0
   22.4961   73.0125   -7.4516 O   0  0  0  0  0  0  0  0  0  0  0  0
   22.3760   72.3219   -4.9162 O   0  0  0  0  0  0  0  0  0  0  0  0
   20.3738   71.8992   -6.5865 O   0  0  0  0  0  0  0  0  0  0  0  0
   19.3131   72.5100   -7.3005 C   0  0  0  0  0  0  0  0  0  0  0  0
   18.4851   70.3131   -6.7887 O   0  0  0  0  0  0  0  0  0  0  0  0
   15.9910   71.1176   -8.2459 O   0  0  0  0  0  0  0  0  0  0  0  0
   15.2711   71.4058   -5.6315 O   0  0  0  0  0  0  0  0  0  0  0  0
   16.8448   71.9041   -7.4165 C   0  0  1  0  0  0  0  0  0  0  0  0
   16.6384   71.5457   -5.9596 C   0  0  2  0  0  0  0  0  0  0  0  0
   18.2794   71.4500   -7.6556 C   0  0  1  0  0  0  0  0  0  0  0  0
   17.4037   70.2383   -5.8453 C   0  0  2  0  0  0  0  0  0  0  0  0
   15.0692   71.3897   -8.1108 H   0  0  0  0  0  0  0  0  0  0  0  0
   14.8279   72.2641   -5.7194 H   0  0  0  0  0  0  0  0  0  0  0  0
   17.2035   67.8222   -4.3960 O   0  0  0  0  0  0  0  0  0  0  0  0
   19.5157   69.5677   -0.8115 O   0  0  0  0  0  0  0  0  0  0  0  0
   17.9447   70.0334   -4.5312 N   0  0  0  0  0  0  0  0  0  0  0  0
   18.3551   68.6932   -2.6124 N   0  0  0  0  0  0  0  0  0  0  0  0
   17.7885   68.7823   -3.8903 C   0  0  0  0  0  0  0  0  0  0  0  0
   18.6215   71.0663   -3.8917 C   0  0  0  0  0  0  0  0  0  0  0  0
   19.1549   70.9656   -2.6724 C   0  0  0  0  0  0  0  0  0  0  0  0
   19.0360   69.6917   -1.9342 C   0  0  0  0  0  0  0  0  0  0  0  0
   18.2584   67.8310   -2.1466 H   0  0  0  0  0  0  0  0  0  0  0  0
   20.9328   74.2737   -5.9115 O   0  0  0  0  0  0  0  0  0  0  0  0
   20.3197   74.9892   -4.5980 P   0  0  2  0  0  0  0  0  0  0  0  0
   18.7384   74.6633   -4.7020 O   0  0  0  0  0  0  0  0  0  0  0  0
   20.6447   76.4505   -4.4851 O   0  0  0  0  0  0  0  0  0  0  0  0
   20.8407   74.0906   -3.3627 O   0  0  0  0  0  0  0  0  0  0  0  0
   20.4522   75.2477   -1.3312 O   0  0  0  0  0  0  0  0  0  0  0  0
   22.5826   72.0305    0.1390 O   0  0  0  0  0  0  0  0  0  0  0  0
   19.7578   72.2031    0.6276 O   0  0  0  0  0  0  0  0  0  0  0  0
   23.3259   73.2184   -2.3939 O   0  0  0  0  0  0  0  0  0  0  0  0
   21.6635   72.6966   -0.7310 C   0  0  1  0  0  0  0  0  0  0  0  0
   20.5363   73.2836    0.1209 C   0  0  1  0  0  0  0  0  0  0  0  0
   22.4007   73.8028   -1.4834 C   0  0  2  0  0  0  0  0  0  0  0  0
   19.6578   74.2352   -0.7023 C   0  0  1  0  0  0  0  0  0  0  0  0
   21.4312   74.7215   -2.2293 C   0  0  1  0  0  0  0  0  0  0  0  0
   22.1209   71.3266    0.6195 H   0  0  0  0  0  0  0  0  0  0  0  0
   20.3244   71.6095    1.1450 H   0  0  0  0  0  0  0  0  0  0  0  0
   23.9342   72.6394   -1.9096 H   0  0  0  0  0  0  0  0  0  0  0  0
   19.0441   74.8837    1.5139 O   0  0  0  0  0  0  0  0  0  0  0  0
   18.6245   74.9527    0.1635 C   0  0  0  0  0  0  0  0  0  0  0  0
   18.3961   75.3366    2.0767 H   0  0  0  0  0  0  0  0  0  0  0  0
 25 28  1  0
 25 24  1  0
 25 26  1  6
 25 27  2  0
  1  4  1  0
  1 24  1  0
  1  2  1  6
  1  3  2  0
  6 11  1  0
  6 12  1  0
 29 36  1  0
 29 37  1  0
  9  7  1  6
  7 13  1  0
 10  8  1  6
  8 14  1  0
 37 28  1  6
  4  5  1  0
 33 30  1  1
 30 38  1  0
 34 31  1  6
 31 39  1  0
 35 32  1  6
 32 40  1  0
 41 42  1  0
 41 43  1  0
 15 19  2  0
 16 22  2  0
 12 17  1  1
 17 19  1  0
 17 20  1  0
 18 19  1  0
 18 22  1  0
 18 23  1  0
  9 10  1  0
  9 11  1  0
 10 12  1  0
 11  5  1  1
 33 34  1  0
 33 35  1  0
 34 36  1  0
 35 37  1  0
 36 42  1  1
 20 21  2  0
 21 22  1  0
M  CHG  2   2  -1  26  -1
M  END
>  <COMPND>  (15) 
    8629 

>  <AUTHOR>  (15) 
    GENERATED BY OPEN BABEL 3.1.1

>  <MASTER>  (15) 
        0    0    0    0    0    0    0    0   58    0   58    0

>  <minimizedAffinity>  (15) 
-6.39777

>  <CNNscore>  (15) 
0.3498884141

>  <CNNaffinity>  (15) 
3.9623107910

>  <CNN_VS>  (15) 
1.3863666058

>  <CNNaffinity_variance>  (15) 
0.4075469077

$$$$
16
     RDKit          3D

 43 45  0  0  0  0  0  0  0  0999 V2000
   18.7197   69.6211   -3.9692 P   0  0  2  0  0  0  0  0  0  0  0  0
   19.7381   68.4786   -3.4447 O   0  0  0  0  0  0  0  0  0  0  0  0
   17.4973   69.8180   -3.1215 O   0  0  0  0  0  0  0  0  0  0  0  0
   18.4472   69.2197   -5.5127 O   0  0  0  0  0  0  0  0  0  0  0  0
   19.0512   69.9987   -6.5306 C   0  0  0  0  0  0  0  0  0  0  0  0
   16.8381   70.1195   -7.4588 O   0  0  0  0  0  0  0  0  0  0  0  0
   18.1755   70.4288  -10.1246 O   0  0  0  0  0  0  0  0  0  0  0  0
   17.4707   72.9911   -9.5124 O   0  0  0  0  0  0  0  0  0  0  0  0
   18.5768   70.9296   -8.8504 C   0  0  1  0  0  0  0  0  0  0  0  0
   17.6998   72.0954   -8.4437 C   0  0  2  0  0  0  0  0  0  0  0  0
   18.2211   69.8830   -7.8018 C   0  0  1  0  0  0  0  0  0  0  0  0
   16.4324   71.3924   -7.9880 C   0  0  2  0  0  0  0  0  0  0  0  0
   18.3927   71.0800  -10.8108 H   0  0  0  0  0  0  0  0  0  0  0  0
   18.3065   73.4128   -9.7658 H   0  0  0  0  0  0  0  0  0  0  0  0
   14.4916   73.3830   -8.4865 O   0  0  0  0  0  0  0  0  0  0  0  0
   13.8365   74.1301   -3.9861 O   0  0  0  0  0  0  0  0  0  0  0  0
   15.7385   72.1229   -6.9652 N   0  0  0  0  0  0  0  0  0  0  0  0
   14.1668   73.7533   -6.2452 N   0  0  0  0  0  0  0  0  0  0  0  0
   14.7829   73.1027   -7.3219 C   0  0  0  0  0  0  0  0  0  0  0  0
   16.0077   71.8648   -5.6255 C   0  0  0  0  0  0  0  0  0  0  0  0
   15.4124   72.4949   -4.6106 C   0  0  0  0  0  0  0  0  0  0  0  0
   14.4013   73.5329   -4.8972 C   0  0  0  0  0  0  0  0  0  0  0  0
   13.4978   74.4402   -6.4697 H   0  0  0  0  0  0  0  0  0  0  0  0
   19.6683   70.9239   -4.0946 O   0  0  0  0  0  0  0  0  0  0  0  0
   20.0529   72.0648   -3.0160 P   0  0  2  0  0  0  0  0  0  0  0  0
   20.7724   71.2289   -1.8323 O   0  0  0  0  0  0  0  0  0  0  0  0
   18.8912   72.9020   -2.5651 O   0  0  0  0  0  0  0  0  0  0  0  0
   21.2478   72.8979   -3.7111 O   0  0  0  0  0  0  0  0  0  0  0  0
   20.8407   73.4260   -5.9853 O   0  0  0  0  0  0  0  0  0  0  0  0
   24.8543   74.3777   -5.7953 O   0  0  0  0  0  0  0  0  0  0  0  0
   22.9050   76.4800   -5.9650 O   0  0  0  0  0  0  0  0  0  0  0  0
   23.8482   72.0704   -4.3658 O   0  0  0  0  0  0  0  0  0  0  0  0
   23.5170   74.2653   -5.3008 C   0  0  1  0  0  0  0  0  0  0  0  0
   22.6031   75.1065   -6.1940 C   0  0  1  0  0  0  0  0  0  0  0  0
   23.0955   72.7974   -5.3309 C   0  0  2  0  0  0  0  0  0  0  0  0
   21.1244   74.8270   -5.8931 C   0  0  1  0  0  0  0  0  0  0  0  0
   21.5974   72.6344   -5.0674 C   0  0  1  0  0  0  0  0  0  0  0  0
   25.1282   75.3073   -5.7783 H   0  0  0  0  0  0  0  0  0  0  0  0
   23.8416   76.6430   -6.1582 H   0  0  0  0  0  0  0  0  0  0  0  0
   24.7947   72.1814   -4.5436 H   0  0  0  0  0  0  0  0  0  0  0  0
   20.9676   75.9897   -7.9745 O   0  0  0  0  0  0  0  0  0  0  0  0
   20.1966   75.5358   -6.8774 C   0  0  0  0  0  0  0  0  0  0  0  0
   20.3901   76.4426   -8.6094 H   0  0  0  0  0  0  0  0  0  0  0  0
 25 28  1  0
 25 24  1  0
 25 26  1  1
 25 27  2  0
  1  4  1  0
  1 24  1  0
  1  2  1  1
  1  3  2  0
  6 11  1  0
  6 12  1  0
 29 36  1  0
 29 37  1  0
  9  7  1  6
  7 13  1  0
 10  8  1  6
  8 14  1  0
 37 28  1  1
  4  5  1  0
 33 30  1  6
 30 38  1  0
 34 31  1  1
 31 39  1  0
 35 32  1  1
 32 40  1  0
 41 42  1  0
 41 43  1  0
 15 19  2  0
 16 22  2  0
 12 17  1  1
 17 19  1  0
 17 20  1  0
 18 19  1  0
 18 22  1  0
 18 23  1  0
  9 10  1  0
  9 11  1  0
 10 12  1  0
 11  5  1  1
 33 34  1  0
 33 35  1  0
 34 36  1  0
 35 37  1  0
 36 42  1  6
 20 21  2  0
 21 22  1  0
M  CHG  2   2  -1  26  -1
M  END
>  <COMPND>  (16) 
    8629 

>  <AUTHOR>  (16) 
    GENERATED BY OPEN BABEL 3.1.1

>  <MASTER>  (16) 
        0    0    0    0    0    0    0    0   58    0   58    0

>  <minimizedAffinity>  (16) 
-6.71020

>  <CNNscore>  (16) 
0.3454769850

>  <CNNaffinity>  (16) 
3.9108796120

>  <CNN_VS>  (16) 
1.3511189222

>  <CNNaffinity_variance>  (16) 
0.3373586237

$$$$
17
     RDKit          3D

 43 45  0  0  0  0  0  0  0  0999 V2000
   22.8139   71.3473   -1.9050 P   0  0  2  0  0  0  0  0  0  0  0  0
   24.1093   70.6404   -2.5682 O   0  0  0  0  0  0  0  0  0  0  0  0
   22.2882   70.6760   -0.6703 O   0  0  0  0  0  0  0  0  0  0  0  0
   21.7694   71.4752   -3.1340 O   0  0  0  0  0  0  0  0  0  0  0  0
   21.0497   70.3215   -3.5326 C   0  0  0  0  0  0  0  0  0  0  0  0
   18.8185   71.0265   -4.0789 O   0  0  0  0  0  0  0  0  0  0  0  0
   17.9154   69.2972   -1.8019 O   0  0  0  0  0  0  0  0  0  0  0  0
   17.3746   67.7451   -3.9779 O   0  0  0  0  0  0  0  0  0  0  0  0
   18.9764   69.0836   -2.7313 C   0  0  1  0  0  0  0  0  0  0  0  0
   18.4195   68.6904   -4.0837 C   0  0  2  0  0  0  0  0  0  0  0  0
   19.6165   70.4333   -3.0312 C   0  0  1  0  0  0  0  0  0  0  0  0
   17.9461   70.0266   -4.6301 C   0  0  2  0  0  0  0  0  0  0  0  0
   17.4915   68.4491   -1.5948 H   0  0  0  0  0  0  0  0  0  0  0  0
   17.7260   66.9124   -3.6259 H   0  0  0  0  0  0  0  0  0  0  0  0
   16.0268   71.2990   -6.2657 O   0  0  0  0  0  0  0  0  0  0  0  0
   18.3076   70.1956  -10.1155 O   0  0  0  0  0  0  0  0  0  0  0  0
   18.0137   70.0873   -6.0630 N   0  0  0  0  0  0  0  0  0  0  0  0
   17.1641   70.7487   -8.1813 N   0  0  0  0  0  0  0  0  0  0  0  0
   16.9978   70.7499   -6.7905 C   0  0  0  0  0  0  0  0  0  0  0  0
   19.0788   69.4945   -6.7322 C   0  0  0  0  0  0  0  0  0  0  0  0
   19.2222   69.5010   -8.0591 C   0  0  0  0  0  0  0  0  0  0  0  0
   18.2043   70.1723   -8.8930 C   0  0  0  0  0  0  0  0  0  0  0  0
   16.4684   71.2041   -8.7088 H   0  0  0  0  0  0  0  0  0  0  0  0
   23.3044   72.8717   -1.6849 O   0  0  0  0  0  0  0  0  0  0  0  0
   22.7901   74.2573   -2.3394 P   0  0  2  0  0  0  0  0  0  0  0  0
   23.8625   75.3425   -1.8010 O   0  0  0  0  0  0  0  0  0  0  0  0
   21.3603   74.5920   -2.0270 O   0  0  0  0  0  0  0  0  0  0  0  0
   23.1141   74.1105   -3.9137 O   0  0  0  0  0  0  0  0  0  0  0  0
   23.3070   75.5266   -5.8042 O   0  0  0  0  0  0  0  0  0  0  0  0
   20.7875   72.6602   -7.3812 O   0  0  0  0  0  0  0  0  0  0  0  0
   23.5276   72.7641   -8.2350 O   0  0  0  0  0  0  0  0  0  0  0  0
   20.4691   73.5075   -4.6316 O   0  0  0  0  0  0  0  0  0  0  0  0
   21.8569   73.1494   -6.5674 C   0  0  1  0  0  0  0  0  0  0  0  0
   22.8981   73.7972   -7.4822 C   0  0  1  0  0  0  0  0  0  0  0  0
   21.3026   74.1708   -5.5759 C   0  0  2  0  0  0  0  0  0  0  0  0
   23.9405   74.5774   -6.6699 C   0  0  1  0  0  0  0  0  0  0  0  0
   22.4224   74.9251   -4.8567 C   0  0  1  0  0  0  0  0  0  0  0  0
   21.1326   72.0108   -8.0127 H   0  0  0  0  0  0  0  0  0  0  0  0
   22.8584   72.2789   -8.7429 H   0  0  0  0  0  0  0  0  0  0  0  0
   19.7641   73.0340   -5.0993 H   0  0  0  0  0  0  0  0  0  0  0  0
   26.0625   74.5840   -7.7681 O   0  0  0  0  0  0  0  0  0  0  0  0
   24.8959   75.3606   -7.5676 C   0  0  0  0  0  0  0  0  0  0  0  0
   26.6797   75.0699   -8.3380 H   0  0  0  0  0  0  0  0  0  0  0  0
 25 28  1  0
 25 24  1  0
 25 26  1  1
 25 27  2  0
  1  4  1  0
  1 24  1  0
  1  2  1  6
  1  3  2  0
  6 11  1  0
  6 12  1  0
 29 36  1  0
 29 37  1  0
  9  7  1  1
  7 13  1  0
 10  8  1  1
  8 14  1  0
 37 28  1  6
  4  5  1  0
 33 30  1  6
 30 38  1  0
 34 31  1  1
 31 39  1  0
 35 32  1  1
 32 40  1  0
 41 42  1  0
 41 43  1  0
 15 19  2  0
 16 22  2  0
 12 17  1  6
 17 19  1  0
 17 20  1  0
 18 19  1  0
 18 22  1  0
 18 23  1  0
  9 10  1  0
  9 11  1  0
 10 12  1  0
 11  5  1  6
 33 34  1  0
 33 35  1  0
 34 36  1  0
 35 37  1  0
 36 42  1  6
 20 21  2  0
 21 22  1  0
M  CHG  2   2  -1  26  -1
M  END
>  <COMPND>  (17) 
    8629 

>  <AUTHOR>  (17) 
    GENERATED BY OPEN BABEL 3.1.1

>  <MASTER>  (17) 
        0    0    0    0    0    0    0    0   58    0   58    0

>  <minimizedAffinity>  (17) 
-7.95660

>  <CNNscore>  (17) 
0.3317699730

>  <CNNaffinity>  (17) 
4.0293493271

>  <CNN_VS>  (17) 
1.3368171453

>  <CNNaffinity_variance>  (17) 
0.7377856970

$$$$
18
     RDKit          3D

 43 45  0  0  0  0  0  0  0  0999 V2000
   19.8937   71.9343   -1.2822 P   0  0  2  0  0  0  0  0  0  0  0  0
   20.1032   72.7483    0.1002 O   0  0  0  0  0  0  0  0  0  0  0  0
   19.1735   72.6901   -2.3598 O   0  0  0  0  0  0  0  0  0  0  0  0
   19.2037   70.5472   -0.8155 O   0  0  0  0  0  0  0  0  0  0  0  0
   18.7190   69.6643   -1.8121 C   0  0  0  0  0  0  0  0  0  0  0  0
   16.9692   70.6238   -3.1507 O   0  0  0  0  0  0  0  0  0  0  0  0
   15.1085   68.7562   -1.7222 O   0  0  0  0  0  0  0  0  0  0  0  0
   15.4993   67.4958   -4.1087 O   0  0  0  0  0  0  0  0  0  0  0  0
   16.4574   68.5445   -2.1355 C   0  0  1  0  0  0  0  0  0  0  0  0
   16.5230   68.3473   -3.6357 C   0  0  2  0  0  0  0  0  0  0  0  0
   17.2149   69.8539   -1.9535 C   0  0  1  0  0  0  0  0  0  0  0  0
   16.3821   69.7710   -4.1471 C   0  0  2  0  0  0  0  0  0  0  0  0
   14.6049   67.9334   -1.8291 H   0  0  0  0  0  0  0  0  0  0  0  0
   15.6330   66.6023   -3.7559 H   0  0  0  0  0  0  0  0  0  0  0  0
   15.5845   71.6343   -6.1142 O   0  0  0  0  0  0  0  0  0  0  0  0
   19.0680   70.4648   -8.8961 O   0  0  0  0  0  0  0  0  0  0  0  0
   17.0626   69.9746   -5.3948 N   0  0  0  0  0  0  0  0  0  0  0  0
   17.3198   71.0506   -7.4977 N   0  0  0  0  0  0  0  0  0  0  0  0
   16.5797   70.9348   -6.3141 C   0  0  0  0  0  0  0  0  0  0  0  0
   18.1958   69.2269   -5.6962 C   0  0  0  0  0  0  0  0  0  0  0  0
   18.8894   69.3484   -6.8299 C   0  0  0  0  0  0  0  0  0  0  0  0
   18.4516   70.3294   -7.8438 C   0  0  0  0  0  0  0  0  0  0  0  0
   17.0018   71.7131   -8.1533 H   0  0  0  0  0  0  0  0  0  0  0  0
   21.3965   71.4806   -1.6681 O   0  0  0  0  0  0  0  0  0  0  0  0
   22.0753   71.1658   -3.1009 P   0  0  2  0  0  0  0  0  0  0  0  0
   21.0957   70.0467   -3.7378 O   0  0  0  0  0  0  0  0  0  0  0  0
   23.5169   70.7540   -3.0217 O   0  0  0  0  0  0  0  0  0  0  0  0
   21.8059   72.4917   -3.9808 O   0  0  0  0  0  0  0  0  0  0  0  0
   20.4681   72.6508   -5.9305 O   0  0  0  0  0  0  0  0  0  0  0  0
   23.2638   75.5597   -6.8095 O   0  0  0  0  0  0  0  0  0  0  0  0
   20.5932   76.3316   -6.0885 O   0  0  0  0  0  0  0  0  0  0  0  0
   24.0867   73.1175   -5.4912 O   0  0  0  0  0  0  0  0  0  0  0  0
   22.4129   74.7845   -5.9609 C   0  0  1  0  0  0  0  0  0  0  0  0
   20.9660   74.9948   -6.4115 C   0  0  1  0  0  0  0  0  0  0  0  0
   22.8026   73.3119   -6.0740 C   0  0  2  0  0  0  0  0  0  0  0  0
   20.0221   73.9968   -5.7274 C   0  0  1  0  0  0  0  0  0  0  0  0
   21.7724   72.4018   -5.4028 C   0  0  1  0  0  0  0  0  0  0  0  0
   23.0219   76.4959   -6.7420 H   0  0  0  0  0  0  0  0  0  0  0  0
   21.1973   76.9518   -6.5263 H   0  0  0  0  0  0  0  0  0  0  0  0
   24.7299   73.6990   -5.9249 H   0  0  0  0  0  0  0  0  0  0  0  0
   18.6508   73.9000   -7.6816 O   0  0  0  0  0  0  0  0  0  0  0  0
   18.6006   74.0837   -6.2788 C   0  0  0  0  0  0  0  0  0  0  0  0
   17.7530   73.9525   -8.0463 H   0  0  0  0  0  0  0  0  0  0  0  0
 25 28  1  0
 25 24  1  0
 25 26  1  6
 25 27  2  0
  1  4  1  0
  1 24  1  0
  1  2  1  1
  1  3  2  0
  6 11  1  0
  6 12  1  0
 29 36  1  0
 29 37  1  0
  9  7  1  6
  7 13  1  0
 10  8  1  6
  8 14  1  0
 37 28  1  1
  4  5  1  0
 33 30  1  6
 30 38  1  0
 34 31  1  1
 31 39  1  0
 35 32  1  1
 32 40  1  0
 41 42  1  0
 41 43  1  0
 15 19  2  0
 16 22  2  0
 12 17  1  6
 17 19  1  0
 17 20  1  0
 18 19  1  0
 18 22  1  0
 18 23  1  0
  9 10  1  0
  9 11  1  0
 10 12  1  0
 11  5  1  6
 33 34  1  0
 33 35  1  0
 34 36  1  0
 35 37  1  0
 36 42  1  6
 20 21  2  0
 21 22  1  0
M  CHG  2   2  -1  26  -1
M  END
>  <COMPND>  (18) 
    8629 

>  <AUTHOR>  (18) 
    GENERATED BY OPEN BABEL 3.1.1

>  <MASTER>  (18) 
        0    0    0    0    0    0    0    0   58    0   58    0

>  <minimizedAffinity>  (18) 
-7.04809

>  <CNNscore>  (18) 
0.3152855635

>  <CNNaffinity>  (18) 
3.9200515747

>  <CNN_VS>  (18) 
1.2359356880

>  <CNNaffinity_variance>  (18) 
0.8888911009

$$$$
19
     RDKit          3D

 43 45  0  0  0  0  0  0  0  0999 V2000
   18.0515   73.8618   -3.5423 P   0  0  2  0  0  0  0  0  0  0  0  0
   17.5328   72.4286   -2.9998 O   0  0  0  0  0  0  0  0  0  0  0  0
   17.1579   75.0230   -3.2191 O   0  0  0  0  0  0  0  0  0  0  0  0
   18.3280   73.6047   -5.1157 O   0  0  0  0  0  0  0  0  0  0  0  0
   17.6981   74.4525   -6.0602 C   0  0  0  0  0  0  0  0  0  0  0  0
   18.4578   72.5435   -7.3062 O   0  0  0  0  0  0  0  0  0  0  0  0
   16.7459   73.5601   -9.5481 O   0  0  0  0  0  0  0  0  0  0  0  0
   15.2119   71.5729   -8.4830 O   0  0  0  0  0  0  0  0  0  0  0  0
   16.5088   73.6010   -8.1419 C   0  0  1  0  0  0  0  0  0  0  0  0
   16.1320   72.2256   -7.6320 C   0  0  2  0  0  0  0  0  0  0  0  0
   17.8433   73.8430   -7.4479 C   0  0  1  0  0  0  0  0  0  0  0  0
   17.4804   71.5273   -7.5834 C   0  0  2  0  0  0  0  0  0  0  0  0
   15.9077   73.4069  -10.0129 H   0  0  0  0  0  0  0  0  0  0  0  0
   14.3703   72.0549   -8.4799 H   0  0  0  0  0  0  0  0  0  0  0  0
   19.6492   69.7572   -7.2079 O   0  0  0  0  0  0  0  0  0  0  0  0
   17.6092   67.7311   -3.6058 O   0  0  0  0  0  0  0  0  0  0  0  0
   17.5426   70.5274   -6.5550 N   0  0  0  0  0  0  0  0  0  0  0  0
   18.6318   68.7499   -5.4145 N   0  0  0  0  0  0  0  0  0  0  0  0
   18.6768   69.6885   -6.4533 C   0  0  0  0  0  0  0  0  0  0  0  0
   16.4870   70.3865   -5.6607 C   0  0  0  0  0  0  0  0  0  0  0  0
   16.4589   69.4856   -4.6765 C   0  0  0  0  0  0  0  0  0  0  0  0
   17.6050   68.5703   -4.5012 C   0  0  0  0  0  0  0  0  0  0  0  0
   19.4109   68.1544   -5.3246 H   0  0  0  0  0  0  0  0  0  0  0  0
   19.5413   73.9669   -2.9240 O   0  0  0  0  0  0  0  0  0  0  0  0
   20.7359   75.0189   -3.2059 P   0  0  2  0  0  0  0  0  0  0  0  0
   21.6715   74.8782   -1.8935 O   0  0  0  0  0  0  0  0  0  0  0  0
   20.2700   76.4181   -3.4871 O   0  0  0  0  0  0  0  0  0  0  0  0
   21.5978   74.3493   -4.3948 O   0  0  0  0  0  0  0  0  0  0  0  0
   22.2637   75.9886   -5.9715 O   0  0  0  0  0  0  0  0  0  0  0  0
   23.4631   72.5973   -7.9992 O   0  0  0  0  0  0  0  0  0  0  0  0
   25.4382   74.3207   -6.8257 O   0  0  0  0  0  0  0  0  0  0  0  0
   20.9952   72.5781   -6.4864 O   0  0  0  0  0  0  0  0  0  0  0  0
   23.2261   73.4112   -6.8474 C   0  0  1  0  0  0  0  0  0  0  0  0
   24.0682   74.6820   -6.9767 C   0  0  1  0  0  0  0  0  0  0  0  0
   21.7396   73.7561   -6.7772 C   0  0  2  0  0  0  0  0  0  0  0  0
   23.6698   75.7206   -5.9194 C   0  0  1  0  0  0  0  0  0  0  0  0
   21.4586   74.8334   -5.7281 C   0  0  1  0  0  0  0  0  0  0  0  0
   24.4051   72.3743   -8.0493 H   0  0  0  0  0  0  0  0  0  0  0  0
   25.6767   73.6641   -7.4989 H   0  0  0  0  0  0  0  0  0  0  0  0
   21.1815   71.9040   -7.1578 H   0  0  0  0  0  0  0  0  0  0  0  0
   23.4879   77.9531   -6.7511 O   0  0  0  0  0  0  0  0  0  0  0  0
   24.3859   77.0531   -6.1283 C   0  0  0  0  0  0  0  0  0  0  0  0
   23.9300   78.8057   -6.8900 H   0  0  0  0  0  0  0  0  0  0  0  0
 25 28  1  0
 25 24  1  0
 25 26  1  1
 25 27  2  0
  1  4  1  0
  1 24  1  0
  1  2  1  1
  1  3  2  0
  6 11  1  0
  6 12  1  0
 29 36  1  0
 29 37  1  0
  9  7  1  6
  7 13  1  0
 10  8  1  6
  8 14  1  0
 37 28  1  1
  4  5  1  0
 33 30  1  6
 30 38  1  0
 34 31  1  1
 31 39  1  0
 35 32  1  1
 32 40  1  0
 41 42  1  0
 41 43  1  0
 15 19  2  0
 16 22  2  0
 12 17  1  1
 17 19  1  0
 17 20  1  0
 18 19  1  0
 18 22  1  0
 18 23  1  0
  9 10  1  0
  9 11  1  0
 10 12  1  0
 11  5  1  1
 33 34  1  0
 33 35  1  0
 34 36  1  0
 35 37  1  0
 36 42  1  6
 20 21  2  0
 21 22  1  0
M  CHG  2   2  -1  26  -1
M  END
>  <COMPND>  (19) 
    8629 

>  <AUTHOR>  (19) 
    GENERATED BY OPEN BABEL 3.1.1

>  <MASTER>  (19) 
        0    0    0    0    0    0    0    0   58    0   58    0

>  <minimizedAffinity>  (19) 
-5.99156

>  <CNNscore>  (19) 
0.3053352833

>  <CNNaffinity>  (19) 
3.9365799427

>  <CNN_VS>  (19) 
1.2019767761

>  <CNNaffinity_variance>  (19) 
0.3932832181

$$$$
20
     RDKit          3D

 43 45  0  0  0  0  0  0  0  0999 V2000
   20.7712   72.7465   -4.2393 P   0  0  2  0  0  0  0  0  0  0  0  0
   21.9817   72.9009   -5.3016 O   0  0  0  0  0  0  0  0  0  0  0  0
   21.1307   73.0661   -2.8180 O   0  0  0  0  0  0  0  0  0  0  0  0
   20.2111   71.2517   -4.5032 O   0  0  0  0  0  0  0  0  0  0  0  0
   19.9210   70.4312   -3.3850 C   0  0  0  0  0  0  0  0  0  0  0  0
   17.7920   70.9016   -4.3950 O   0  0  0  0  0  0  0  0  0  0  0  0
   16.6455   68.9213   -2.4573 O   0  0  0  0  0  0  0  0  0  0  0  0
   16.8075   67.4724   -4.7619 O   0  0  0  0  0  0  0  0  0  0  0  0
   17.9041   68.9016   -3.1289 C   0  0  1  0  0  0  0  0  0  0  0  0
   17.7160   68.5407   -4.5876 C   0  0  2  0  0  0  0  0  0  0  0  0
   18.4105   70.3357   -3.2187 C   0  0  1  0  0  0  0  0  0  0  0  0
   17.2024   69.8459   -5.1714 C   0  0  2  0  0  0  0  0  0  0  0  0
   16.3022   68.0162   -2.3876 H   0  0  0  0  0  0  0  0  0  0  0  0
   17.1795   66.6650   -4.3741 H   0  0  0  0  0  0  0  0  0  0  0  0
   15.6608   71.2409   -7.0833 O   0  0  0  0  0  0  0  0  0  0  0  0
   18.7325   70.4289  -10.4220 O   0  0  0  0  0  0  0  0  0  0  0  0
   17.5757   70.0148   -6.5475 N   0  0  0  0  0  0  0  0  0  0  0  0
   17.1916   70.8356   -8.7441 N   0  0  0  0  0  0  0  0  0  0  0  0
   16.7300   70.7318   -7.4257 C   0  0  0  0  0  0  0  0  0  0  0  0
   18.7686   69.4730   -7.0135 C   0  0  0  0  0  0  0  0  0  0  0  0
   19.1938   69.5797   -8.2740 C   0  0  0  0  0  0  0  0  0  0  0  0
   18.3690   70.3134   -9.2556 C   0  0  0  0  0  0  0  0  0  0  0  0
   16.6187   71.3305   -9.3740 H   0  0  0  0  0  0  0  0  0  0  0  0
   19.6143   73.6842   -4.8677 O   0  0  0  0  0  0  0  0  0  0  0  0
   18.3299   74.3879   -4.1836 P   0  0  2  0  0  0  0  0  0  0  0  0
   18.6974   75.9626   -4.2366 O   0  0  0  0  0  0  0  0  0  0  0  0
   18.0048   73.8738   -2.8110 O   0  0  0  0  0  0  0  0  0  0  0  0
   17.1432   74.2098   -5.2629 O   0  0  0  0  0  0  0  0  0  0  0  0
   16.6902   75.5567   -7.1595 O   0  0  0  0  0  0  0  0  0  0  0  0
   12.8270   74.4772   -6.1792 O   0  0  0  0  0  0  0  0  0  0  0  0
   14.0744   73.3310   -8.4984 O   0  0  0  0  0  0  0  0  0  0  0  0
   14.7403   75.0550   -4.0852 O   0  0  0  0  0  0  0  0  0  0  0  0
   14.2384   74.2888   -6.3128 C   0  0  1  0  0  0  0  0  0  0  0  0
   14.6057   74.4471   -7.7896 C   0  0  1  0  0  0  0  0  0  0  0  0
   14.9637   75.3311   -5.4637 C   0  0  2  0  0  0  0  0  0  0  0  0
   16.1269   74.5241   -7.9770 C   0  0  1  0  0  0  0  0  0  0  0  0
   16.4637   75.3586   -5.7626 C   0  0  1  0  0  0  0  0  0  0  0  0
   12.3606   73.8182   -6.7155 H   0  0  0  0  0  0  0  0  0  0  0  0
   13.1133   73.2936   -8.3714 H   0  0  0  0  0  0  0  0  0  0  0  0
   13.7872   75.0406   -3.9087 H   0  0  0  0  0  0  0  0  0  0  0  0
   16.8745   73.6318  -10.0635 O   0  0  0  0  0  0  0  0  0  0  0  0
   16.5100   74.8396   -9.4212 C   0  0  0  0  0  0  0  0  0  0  0  0
   17.1205   73.8172  -10.9837 H   0  0  0  0  0  0  0  0  0  0  0  0
 25 28  1  0
 25 24  1  0
 25 26  1  1
 25 27  2  0
  1  4  1  0
  1 24  1  0
  1  2  1  6
  1  3  2  0
  6 11  1  0
  6 12  1  0
 29 36  1  0
 29 37  1  0
  9  7  1  1
  7 13  1  0
 10  8  1  1
  8 14  1  0
 37 28  1  6
  4  5  1  0
 33 30  1  6
 30 38  1  0
 34 31  1  6
 31 39  1  0
 35 32  1  1
 32 40  1  0
 41 42  1  0
 41 43  1  0
 15 19  2  0
 16 22  2  0
 12 17  1  6
 17 19  1  0
 17 20  1  0
 18 19  1  0
 18 22  1  0
 18 23  1  0
  9 10  1  0
  9 11  1  0
 10 12  1  0
 11  5  1  6
 33 34  1  0
 33 35  1  0
 34 36  1  0
 35 37  1  0
 36 42  1  6
 20 21  2  0
 21 22  1  0
M  CHG  2   2  -1  26  -1
M  END
>  <COMPND>  (20) 
    8629 

>  <AUTHOR>  (20) 
    GENERATED BY OPEN BABEL 3.1.1

>  <MASTER>  (20) 
        0    0    0    0    0    0    0    0   58    0   58    0

>  <minimizedAffinity>  (20) 
-6.15094

>  <CNNscore>  (20) 
0.2749326229

>  <CNNaffinity>  (20) 
3.9894242287

>  <CNN_VS>  (20) 
1.0968228579

>  <CNNaffinity_variance>  (20) 
0.5625681877

$$$$
21
     RDKit          3D

 43 45  0  0  0  0  0  0  0  0999 V2000
   21.9206   71.4196   -3.0833 P   0  0  2  0  0  0  0  0  0  0  0  0
   23.3536   70.6731   -3.1639 O   0  0  0  0  0  0  0  0  0  0  0  0
   21.9286   72.7295   -2.3515 O   0  0  0  0  0  0  0  0  0  0  0  0
   20.9267   70.2892   -2.4897 O   0  0  0  0  0  0  0  0  0  0  0  0
   20.1479   69.5295   -3.3975 C   0  0  0  0  0  0  0  0  0  0  0  0
   18.1763   70.6097   -4.2458 O   0  0  0  0  0  0  0  0  0  0  0  0
   16.6333   68.8530   -2.3687 O   0  0  0  0  0  0  0  0  0  0  0  0
   16.3121   67.5900   -4.7641 O   0  0  0  0  0  0  0  0  0  0  0  0
   17.8130   68.5591   -3.1151 C   0  0  1  0  0  0  0  0  0  0  0  0
   17.4754   68.3705   -4.5794 C   0  0  2  0  0  0  0  0  0  0  0  0
   18.6738   69.8159   -3.1465 C   0  0  1  0  0  0  0  0  0  0  0  0
   17.2982   69.8044   -5.0491 C   0  0  2  0  0  0  0  0  0  0  0  0
   16.0678   68.0649   -2.3345 H   0  0  0  0  0  0  0  0  0  0  0  0
   16.4752   66.6868   -4.4503 H   0  0  0  0  0  0  0  0  0  0  0  0
   15.7977   71.3289   -6.8936 O   0  0  0  0  0  0  0  0  0  0  0  0
   18.7202   70.3852  -10.3301 O   0  0  0  0  0  0  0  0  0  0  0  0
   17.6442   69.9744   -6.4321 N   0  0  0  0  0  0  0  0  0  0  0  0
   17.2542   70.8579   -8.6032 N   0  0  0  0  0  0  0  0  0  0  0  0
   16.8227   70.7595   -7.2742 C   0  0  0  0  0  0  0  0  0  0  0  0
   18.7871   69.3667   -6.9402 C   0  0  0  0  0  0  0  0  0  0  0  0
   19.1841   69.4693   -8.2103 C   0  0  0  0  0  0  0  0  0  0  0  0
   18.3817   70.2716   -9.1561 C   0  0  0  0  0  0  0  0  0  0  0  0
   16.6973   71.3996   -9.2084 H   0  0  0  0  0  0  0  0  0  0  0  0
   21.4742   71.5179   -4.6338 O   0  0  0  0  0  0  0  0  0  0  0  0
   21.0228   72.7851   -5.5301 P   0  0  2  0  0  0  0  0  0  0  0  0
   19.9305   73.5293   -4.5971 O   0  0  0  0  0  0  0  0  0  0  0  0
   20.5242   72.4239   -6.8994 O   0  0  0  0  0  0  0  0  0  0  0  0
   22.3030   73.7679   -5.5222 O   0  0  0  0  0  0  0  0  0  0  0  0
   22.5756   76.0592   -6.0629 O   0  0  0  0  0  0  0  0  0  0  0  0
   26.0339   74.5660   -7.7546 O   0  0  0  0  0  0  0  0  0  0  0  0
   26.1903   76.1162   -5.3420 O   0  0  0  0  0  0  0  0  0  0  0  0
   23.5745   73.0482   -7.9182 O   0  0  0  0  0  0  0  0  0  0  0  0
   24.9837   74.6403   -6.7866 C   0  0  1  0  0  0  0  0  0  0  0  0
   25.0181   76.0299   -6.1474 C   0  0  1  0  0  0  0  0  0  0  0  0
   23.6453   74.4017   -7.4829 C   0  0  2  0  0  0  0  0  0  0  0  0
   23.7655   76.2794   -5.2965 C   0  0  1  0  0  0  0  0  0  0  0  0
   22.4653   74.7259   -6.5649 C   0  0  1  0  0  0  0  0  0  0  0  0
   26.8866   74.7162   -7.3188 H   0  0  0  0  0  0  0  0  0  0  0  0
   26.9739   75.9562   -5.8911 H   0  0  0  0  0  0  0  0  0  0  0  0
   24.3266   72.8556   -8.4987 H   0  0  0  0  0  0  0  0  0  0  0  0
   22.9445   77.7276   -3.5826 O   0  0  0  0  0  0  0  0  0  0  0  0
   23.7029   77.7145   -4.7780 C   0  0  0  0  0  0  0  0  0  0  0  0
   22.8964   78.6346   -3.2409 H   0  0  0  0  0  0  0  0  0  0  0  0
 25 28  1  0
 25 24  1  0
 25 26  1  1
 25 27  2  0
  1  4  1  0
  1 24  1  0
  1  2  1  6
  1  3  2  0
  6 11  1  0
  6 12  1  0
 29 36  1  0
 29 37  1  0
  9  7  1  1
  7 13  1  0
 10  8  1  1
  8 14  1  0
 37 28  1  1
  4  5  1  0
 33 30  1  6
 30 38  1  0
 34 31  1  1
 31 39  1  0
 35 32  1  1
 32 40  1  0
 41 42  1  0
 41 43  1  0
 15 19  2  0
 16 22  2  0
 12 17  1  6
 17 19  1  0
 17 20  1  0
 18 19  1  0
 18 22  1  0
 18 23  1  0
  9 10  1  0
  9 11  1  0
 10 12  1  0
 11  5  1  6
 33 34  1  0
 33 35  1  0
 34 36  1  0
 35 37  1  0
 36 42  1  6
 20 21  2  0
 21 22  1  0
M  CHG  2   2  -1  26  -1
M  END
>  <COMPND>  (21) 
    8629 

>  <AUTHOR>  (21) 
    GENERATED BY OPEN BABEL 3.1.1

>  <MASTER>  (21) 
        0    0    0    0    0    0    0    0   58    0   58    0

>  <minimizedAffinity>  (21) 
-7.43743

>  <CNNscore>  (21) 
0.6038182378

>  <CNNaffinity>  (21) 
4.5432138443

>  <CNN_VS>  (21) 
2.7432754040

>  <CNNaffinity_variance>  (21) 
0.2365332097

$$$$
22
     RDKit          3D

 43 45  0  0  0  0  0  0  0  0999 V2000
   20.6305   70.5661   -1.4234 P   0  0  2  0  0  0  0  0  0  0  0  0
   20.3475   69.2410   -0.5393 O   0  0  0  0  0  0  0  0  0  0  0  0
   20.3768   71.8653   -0.7170 O   0  0  0  0  0  0  0  0  0  0  0  0
   19.7742   70.3219   -2.7743 O   0  0  0  0  0  0  0  0  0  0  0  0
   19.0378   71.4060   -3.3133 C   0  0  0  0  0  0  0  0  0  0  0  0
   17.0341   71.3644   -4.6388 O   0  0  0  0  0  0  0  0  0  0  0  0
   15.9772   69.3935   -2.6414 O   0  0  0  0  0  0  0  0  0  0  0  0
   16.7327   67.7915   -4.7149 O   0  0  0  0  0  0  0  0  0  0  0  0
   17.3055   69.5509   -3.1377 C   0  0  1  0  0  0  0  0  0  0  0  0
   17.4032   69.0249   -4.5545 C   0  0  2  0  0  0  0  0  0  0  0  0
   17.5600   71.0403   -3.3331 C   0  0  1  0  0  0  0  0  0  0  0  0
   16.7614   70.1473   -5.3523 C   0  0  2  0  0  0  0  0  0  0  0  0
   15.7916   68.4502   -2.5084 H   0  0  0  0  0  0  0  0  0  0  0  0
   17.1786   67.1100   -4.1882 H   0  0  0  0  0  0  0  0  0  0  0  0
   15.4757   71.4628   -7.4958 O   0  0  0  0  0  0  0  0  0  0  0  0
   18.9212   70.4918  -10.3986 O   0  0  0  0  0  0  0  0  0  0  0  0
   17.3000   70.2538   -6.6789 N   0  0  0  0  0  0  0  0  0  0  0  0
   17.1924   70.9784   -8.9394 N   0  0  0  0  0  0  0  0  0  0  0  0
   16.5737   70.9348   -7.6835 C   0  0  0  0  0  0  0  0  0  0  0  0
   18.5354   69.6870   -6.9727 C   0  0  0  0  0  0  0  0  0  0  0  0
   19.1111   69.7363   -8.1758 C   0  0  0  0  0  0  0  0  0  0  0  0
   18.4182   70.4294   -9.2811 C   0  0  0  0  0  0  0  0  0  0  0  0
   16.7047   71.4473   -9.6549 H   0  0  0  0  0  0  0  0  0  0  0  0
   22.1553   70.3550   -1.9166 O   0  0  0  0  0  0  0  0  0  0  0  0
   23.2784   71.4214   -2.3799 P   0  0  2  0  0  0  0  0  0  0  0  0
   24.3903   70.4973   -3.1059 O   0  0  0  0  0  0  0  0  0  0  0  0
   23.8133   72.2745   -1.2664 O   0  0  0  0  0  0  0  0  0  0  0  0
   22.5866   72.2470   -3.5819 O   0  0  0  0  0  0  0  0  0  0  0  0
   23.5813   73.8404   -5.0269 O   0  0  0  0  0  0  0  0  0  0  0  0
   19.7853   75.4475   -4.7859 O   0  0  0  0  0  0  0  0  0  0  0  0
   20.6285   74.1595   -7.2104 O   0  0  0  0  0  0  0  0  0  0  0  0
   21.0040   74.2646   -2.4418 O   0  0  0  0  0  0  0  0  0  0  0  0
   20.7550   74.3974   -4.8338 C   0  0  1  0  0  0  0  0  0  0  0  0
   21.5189   74.5099   -6.1546 C   0  0  1  0  0  0  0  0  0  0  0  0
   21.7070   74.5426   -3.6480 C   0  0  2  0  0  0  0  0  0  0  0  0
   22.7473   73.5900   -6.1642 C   0  0  1  0  0  0  0  0  0  0  0  0
   22.9190   73.6187   -3.7803 C   0  0  1  0  0  0  0  0  0  0  0  0
   19.1774   75.3609   -5.5359 H   0  0  0  0  0  0  0  0  0  0  0  0
   19.8570   74.7475   -7.1929 H   0  0  0  0  0  0  0  0  0  0  0  0
   20.2394   74.8562   -2.3696 H   0  0  0  0  0  0  0  0  0  0  0  0
   23.1980   72.8843   -8.4020 O   0  0  0  0  0  0  0  0  0  0  0  0
   23.6107   73.8018   -7.4059 C   0  0  0  0  0  0  0  0  0  0  0  0
   23.7387   73.0077   -9.1983 H   0  0  0  0  0  0  0  0  0  0  0  0
 25 28  1  0
 25 24  1  0
 25 26  1  6
 25 27  2  0
  1  4  1  0
  1 24  1  0
  1  2  1  1
  1  3  2  0
  6 11  1  0
  6 12  1  0
 29 36  1  0
 29 37  1  0
  9  7  1  6
  7 13  1  0
 10  8  1  1
  8 14  1  0
 37 28  1  6
  4  5  1  0
 33 30  1  6
 30 38  1  0
 34 31  1  6
 31 39  1  0
 35 32  1  1
 32 40  1  0
 41 42  1  0
 41 43  1  0
 15 19  2  0
 16 22  2  0
 12 17  1  6
 17 19  1  0
 17 20  1  0
 18 19  1  0
 18 22  1  0
 18 23  1  0
  9 10  1  0
  9 11  1  0
 10 12  1  0
 11  5  1  6
 33 34  1  0
 33 35  1  0
 34 36  1  0
 35 37  1  0
 36 42  1  6
 20 21  2  0
 21 22  1  0
M  CHG  2   2  -1  26  -1
M  END
>  <COMPND>  (22) 
    8629 

>  <AUTHOR>  (22) 
    GENERATED BY OPEN BABEL 3.1.1

>  <MASTER>  (22) 
        0    0    0    0    0    0    0    0   58    0   58    0

>  <minimizedAffinity>  (22) 
-8.03375

>  <CNNscore>  (22) 
0.6024992466

>  <CNNaffinity>  (22) 
4.3332891464

>  <CNN_VS>  (22) 
2.6108033657

>  <CNNaffinity_variance>  (22) 
0.4656796455

$$$$
23
     RDKit          3D

 43 45  0  0  0  0  0  0  0  0999 V2000
   23.0611   71.6397   -3.5191 P   0  0  2  0  0  0  0  0  0  0  0  0
   23.6966   72.4064   -4.7942 O   0  0  0  0  0  0  0  0  0  0  0  0
   23.8400   70.4489   -3.0428 O   0  0  0  0  0  0  0  0  0  0  0  0
   21.5330   71.3477   -3.9633 O   0  0  0  0  0  0  0  0  0  0  0  0
   20.9509   70.1059   -3.6073 C   0  0  0  0  0  0  0  0  0  0  0  0
   18.8210   71.0095   -4.2562 O   0  0  0  0  0  0  0  0  0  0  0  0
   17.6540   69.3470   -2.0505 O   0  0  0  0  0  0  0  0  0  0  0  0
   17.0919   67.8673   -4.2711 O   0  0  0  0  0  0  0  0  0  0  0  0
   18.7386   69.0487   -2.9280 C   0  0  1  0  0  0  0  0  0  0  0  0
   18.2197   68.7177   -4.3117 C   0  0  2  0  0  0  0  0  0  0  0  0
   19.5090   70.3393   -3.1774 C   0  0  1  0  0  0  0  0  0  0  0  0
   17.8938   70.0951   -4.8638 C   0  0  2  0  0  0  0  0  0  0  0  0
   17.1474   68.5378   -1.8762 H   0  0  0  0  0  0  0  0  0  0  0  0
   17.3505   67.0039   -3.9128 H   0  0  0  0  0  0  0  0  0  0  0  0
   15.9856   71.2262   -6.6122 O   0  0  0  0  0  0  0  0  0  0  0  0
   18.5606   70.2952  -10.3195 O   0  0  0  0  0  0  0  0  0  0  0  0
   18.0401   70.1620   -6.2905 N   0  0  0  0  0  0  0  0  0  0  0  0
   17.2694   70.7618   -8.4567 N   0  0  0  0  0  0  0  0  0  0  0  0
   17.0228   70.7496   -7.0779 C   0  0  0  0  0  0  0  0  0  0  0  0
   19.1826   69.6488   -6.8948 C   0  0  0  0  0  0  0  0  0  0  0  0
   19.4020   69.6670   -8.2111 C   0  0  0  0  0  0  0  0  0  0  0  0
   18.3883   70.2633   -9.1049 C   0  0  0  0  0  0  0  0  0  0  0  0
   16.5743   71.1660   -9.0252 H   0  0  0  0  0  0  0  0  0  0  0  0
   22.9027   72.8206   -2.4268 O   0  0  0  0  0  0  0  0  0  0  0  0
   22.4412   72.7793   -0.8781 P   0  0  2  0  0  0  0  0  0  0  0  0
   23.3868   71.6322   -0.2397 O   0  0  0  0  0  0  0  0  0  0  0  0
   20.9707   72.5508   -0.6801 O   0  0  0  0  0  0  0  0  0  0  0  0
   22.9942   74.1595   -0.2502 O   0  0  0  0  0  0  0  0  0  0  0  0
   21.7404   75.8410   -1.3535 O   0  0  0  0  0  0  0  0  0  0  0  0
   23.9877   78.2317    1.1534 O   0  0  0  0  0  0  0  0  0  0  0  0
   21.1904   77.8559    1.6841 O   0  0  0  0  0  0  0  0  0  0  0  0
   25.1866   75.9027   -0.0786 O   0  0  0  0  0  0  0  0  0  0  0  0
   23.2568   77.0608    0.7792 C   0  0  1  0  0  0  0  0  0  0  0  0
   21.8181   77.4742    0.4631 C   0  0  1  0  0  0  0  0  0  0  0  0
   23.9167   76.4307   -0.4459 C   0  0  2  0  0  0  0  0  0  0  0  0
   21.0446   76.3261   -0.1993 C   0  0  1  0  0  0  0  0  0  0  0  0
   23.0428   75.3336   -1.0566 C   0  0  1  0  0  0  0  0  0  0  0  0
   23.5742   78.6364    1.9311 H   0  0  0  0  0  0  0  0  0  0  0  0
   21.6888   78.5811    2.0924 H   0  0  0  0  0  0  0  0  0  0  0  0
   25.7304   76.6070    0.3063 H   0  0  0  0  0  0  0  0  0  0  0  0
   19.6728   78.1669   -0.8616 O   0  0  0  0  0  0  0  0  0  0  0  0
   19.6582   76.7648   -0.6658 C   0  0  0  0  0  0  0  0  0  0  0  0
   18.7969   78.4603   -1.1591 H   0  0  0  0  0  0  0  0  0  0  0  0
 25 28  1  0
 25 24  1  0
 25 26  1  1
 25 27  2  0
  1  4  1  0
  1 24  1  0
  1  2  1  6
  1  3  2  0
  6 11  1  0
  6 12  1  0
 29 36  1  0
 29 37  1  0
  9  7  1  1
  7 13  1  0
 10  8  1  1
  8 14  1  0
 37 28  1  1
  4  5  1  0
 33 30  1  6
 30 38  1  0
 34 31  1  1
 31 39  1  0
 35 32  1  1
 32 40  1  0
 41 42  1  0
 41 43  1  0
 15 19  2  0
 16 22  2  0
 12 17  1  6
 17 19  1  0
 17 20  1  0
 18 19  1  0
 18 22  1  0
 18 23  1  0
  9 10  1  0
  9 11  1  0
 10 12  1  0
 11  5  1  6
 33 34  1  0
 33 35  1  0
 34 36  1  0
 35 37  1  0
 36 42  1  6
 20 21  2  0
 21 22  1  0
M  CHG  2   2  -1  26  -1
M  END
>  <COMPND>  (23) 
    8629 

>  <AUTHOR>  (23) 
    GENERATED BY OPEN BABEL 3.1.1

>  <MASTER>  (23) 
        0    0    0    0    0    0    0    0   58    0   58    0

>  <minimizedAffinity>  (23) 
-7.22757

>  <CNNscore>  (23) 
0.5840797424

>  <CNNaffinity>  (23) 
4.4718651772

>  <CNN_VS>  (23) 
2.6119258404

>  <CNNaffinity_variance>  (23) 
0.0233527683

$$$$
24
     RDKit          3D

 43 45  0  0  0  0  0  0  0  0999 V2000
   20.9784   70.6758   -1.4041 P   0  0  2  0  0  0  0  0  0  0  0  0
   22.5474   70.6454   -1.0108 O   0  0  0  0  0  0  0  0  0  0  0  0
   20.1096   69.7385   -0.6178 O   0  0  0  0  0  0  0  0  0  0  0  0
   20.9755   70.4583   -3.0074 O   0  0  0  0  0  0  0  0  0  0  0  0
   20.1737   69.4225   -3.5478 C   0  0  0  0  0  0  0  0  0  0  0  0
   18.2196   70.5610   -4.3596 O   0  0  0  0  0  0  0  0  0  0  0  0
   16.6540   68.8081   -2.4976 O   0  0  0  0  0  0  0  0  0  0  0  0
   16.2828   67.5932   -4.9107 O   0  0  0  0  0  0  0  0  0  0  0  0
   17.8200   68.5003   -3.2598 C   0  0  1  0  0  0  0  0  0  0  0  0
   17.4652   68.3440   -4.7238 C   0  0  2  0  0  0  0  0  0  0  0  0
   18.7087   69.7377   -3.2783 C   0  0  1  0  0  0  0  0  0  0  0  0
   17.3163   69.7893   -5.1679 C   0  0  2  0  0  0  0  0  0  0  0  0
   16.0710   68.0326   -2.4713 H   0  0  0  0  0  0  0  0  0  0  0  0
   16.4282   66.6814   -4.6135 H   0  0  0  0  0  0  0  0  0  0  0  0
   15.8633   71.4183   -6.9604 O   0  0  0  0  0  0  0  0  0  0  0  0
   18.7025   70.4247  -10.4522 O   0  0  0  0  0  0  0  0  0  0  0  0
   17.6537   69.9747   -6.5511 N   0  0  0  0  0  0  0  0  0  0  0  0
   17.2783   70.9224   -8.6976 N   0  0  0  0  0  0  0  0  0  0  0  0
   16.8579   70.8134   -7.3659 C   0  0  0  0  0  0  0  0  0  0  0  0
   18.7631   69.3292   -7.0863 C   0  0  0  0  0  0  0  0  0  0  0  0
   19.1498   69.4426   -8.3587 C   0  0  0  0  0  0  0  0  0  0  0  0
   18.3726   70.2999   -9.2769 C   0  0  0  0  0  0  0  0  0  0  0  0
   16.7388   71.5010   -9.2840 H   0  0  0  0  0  0  0  0  0  0  0  0
   20.5950   72.2384   -1.2488 O   0  0  0  0  0  0  0  0  0  0  0  0
   19.3329   73.0821   -1.8042 P   0  0  2  0  0  0  0  0  0  0  0  0
   19.7179   74.6101   -1.4377 O   0  0  0  0  0  0  0  0  0  0  0  0
   18.0062   72.6314   -1.2651 O   0  0  0  0  0  0  0  0  0  0  0  0
   19.4638   73.0028   -3.4109 O   0  0  0  0  0  0  0  0  0  0  0  0
   20.9455   74.5861   -4.3671 O   0  0  0  0  0  0  0  0  0  0  0  0
   18.9924   73.3580   -7.7917 O   0  0  0  0  0  0  0  0  0  0  0  0
   21.7071   72.5388   -7.3365 O   0  0  0  0  0  0  0  0  0  0  0  0
   17.5174   73.6669   -5.3202 O   0  0  0  0  0  0  0  0  0  0  0  0
   19.5688   73.1993   -6.4925 C   0  0  1  0  0  0  0  0  0  0  0  0
   21.0543   73.5548   -6.5803 C   0  0  1  0  0  0  0  0  0  0  0  0
   18.8515   74.1250   -5.5117 C   0  0  2  0  0  0  0  0  0  0  0  0
   21.6805   73.6670   -5.1837 C   0  0  1  0  0  0  0  0  0  0  0  0
   19.5830   74.2029   -4.1705 C   0  0  1  0  0  0  0  0  0  0  0  0
   19.4430   72.7726   -8.4192 H   0  0  0  0  0  0  0  0  0  0  0  0
   21.3019   72.4778   -8.2159 H   0  0  0  0  0  0  0  0  0  0  0  0
   17.0649   73.6222   -6.1764 H   0  0  0  0  0  0  0  0  0  0  0  0
   23.9300   73.1628   -5.8117 O   0  0  0  0  0  0  0  0  0  0  0  0
   23.1198   74.1741   -5.2414 C   0  0  0  0  0  0  0  0  0  0  0  0
   24.8490   73.4717   -5.8550 H   0  0  0  0  0  0  0  0  0  0  0  0
 25 28  1  0
 25 24  1  0
 25 26  1  1
 25 27  2  0
  1  4  1  0
  1 24  1  0
  1  2  1  1
  1  3  2  0
  6 11  1  0
  6 12  1  0
 29 36  1  0
 29 37  1  0
  9  7  1  1
  7 13  1  0
 10  8  1  1
  8 14  1  0
 37 28  1  6
  4  5  1  0
 33 30  1  6
 30 38  1  0
 34 31  1  6
 31 39  1  0
 35 32  1  1
 32 40  1  0
 41 42  1  0
 41 43  1  0
 15 19  2  0
 16 22  2  0
 12 17  1  6
 17 19  1  0
 17 20  1  0
 18 19  1  0
 18 22  1  0
 18 23  1  0
  9 10  1  0
  9 11  1  0
 10 12  1  0
 11  5  1  6
 33 34  1  0
 33 35  1  0
 34 36  1  0
 35 37  1  0
 36 42  1  6
 20 21  2  0
 21 22  1  0
M  CHG  2   2  -1  26  -1
M  END
>  <COMPND>  (24) 
    8629 

>  <AUTHOR>  (24) 
    GENERATED BY OPEN BABEL 3.1.1

>  <MASTER>  (24) 
        0    0    0    0    0    0    0    0   58    0   58    0

>  <minimizedAffinity>  (24) 
-7.81133

>  <CNNscore>  (24) 
0.5556104779

>  <CNNaffinity>  (24) 
4.3627777100

>  <CNN_VS>  (24) 
2.4240050316

>  <CNNaffinity_variance>  (24) 
0.6886265874

$$$$
25
     RDKit          3D

 43 45  0  0  0  0  0  0  0  0999 V2000
   20.5733   71.1978   -1.1650 P   0  0  2  0  0  0  0  0  0  0  0  0
   20.2211   69.6523   -0.8414 O   0  0  0  0  0  0  0  0  0  0  0  0
   20.9951   72.0135    0.0216 O   0  0  0  0  0  0  0  0  0  0  0  0
   19.2701   71.7350   -1.9595 O   0  0  0  0  0  0  0  0  0  0  0  0
   18.9742   71.1774   -3.2281 C   0  0  0  0  0  0  0  0  0  0  0  0
   16.9693   71.1614   -4.5523 O   0  0  0  0  0  0  0  0  0  0  0  0
   15.9578   69.0694   -2.6573 O   0  0  0  0  0  0  0  0  0  0  0  0
   16.7427   67.5914   -4.8104 O   0  0  0  0  0  0  0  0  0  0  0  0
   17.2815   69.2798   -3.1460 C   0  0  1  0  0  0  0  0  0  0  0  0
   17.3875   68.8289   -4.5879 C   0  0  2  0  0  0  0  0  0  0  0  0
   17.5043   70.7822   -3.2653 C   0  0  1  0  0  0  0  0  0  0  0  0
   16.7207   69.9768   -5.3267 C   0  0  2  0  0  0  0  0  0  0  0  0
   15.7922   68.1168   -2.5724 H   0  0  0  0  0  0  0  0  0  0  0  0
   17.2038   66.8935   -4.3195 H   0  0  0  0  0  0  0  0  0  0  0  0
   15.3917   71.3488   -7.4074 O   0  0  0  0  0  0  0  0  0  0  0  0
   18.8639   70.6248  -10.3503 O   0  0  0  0  0  0  0  0  0  0  0  0
   17.2545   70.1621   -6.6466 N   0  0  0  0  0  0  0  0  0  0  0  0
   17.1217   70.9874   -8.8710 N   0  0  0  0  0  0  0  0  0  0  0  0
   16.5058   70.8655   -7.6189 C   0  0  0  0  0  0  0  0  0  0  0  0
   18.5072   69.6495   -6.9658 C   0  0  0  0  0  0  0  0  0  0  0  0
   19.0798   69.7731   -8.1650 C   0  0  0  0  0  0  0  0  0  0  0  0
   18.3641   70.4943   -9.2372 C   0  0  0  0  0  0  0  0  0  0  0  0
   16.6186   71.4732   -9.5642 H   0  0  0  0  0  0  0  0  0  0  0  0
   21.6868   71.0804   -2.3308 O   0  0  0  0  0  0  0  0  0  0  0  0
   22.8338   72.1131   -2.8111 P   0  0  2  0  0  0  0  0  0  0  0  0
   23.8767   71.1658   -3.6063 O   0  0  0  0  0  0  0  0  0  0  0  0
   23.4476   72.9121   -1.6981 O   0  0  0  0  0  0  0  0  0  0  0  0
   22.1297   72.9997   -3.9614 O   0  0  0  0  0  0  0  0  0  0  0  0
   20.8006   72.4482   -5.8445 O   0  0  0  0  0  0  0  0  0  0  0  0
   23.1587   75.3844   -7.5383 O   0  0  0  0  0  0  0  0  0  0  0  0
   20.3986   75.9361   -6.9678 O   0  0  0  0  0  0  0  0  0  0  0  0
   24.3110   73.5182   -5.6491 O   0  0  0  0  0  0  0  0  0  0  0  0
   22.4199   74.7494   -6.4913 C   0  0  1  0  0  0  0  0  0  0  0  0
   20.9619   74.6276   -6.9389 C   0  0  1  0  0  0  0  0  0  0  0  0
   23.0176   73.3692   -6.2248 C   0  0  2  0  0  0  0  0  0  0  0  0
   20.1646   73.7234   -5.9892 C   0  0  1  0  0  0  0  0  0  0  0  0
   22.1224   72.5334   -5.3082 C   0  0  1  0  0  0  0  0  0  0  0  0
   22.7845   76.2616   -7.7121 H   0  0  0  0  0  0  0  0  0  0  0  0
   20.9115   76.4970   -7.5706 H   0  0  0  0  0  0  0  0  0  0  0  0
   24.8681   74.0488   -6.2389 H   0  0  0  0  0  0  0  0  0  0  0  0
   17.8321   73.7842   -5.4745 O   0  0  0  0  0  0  0  0  0  0  0  0
   18.7504   73.4609   -6.5024 C   0  0  0  0  0  0  0  0  0  0  0  0
   16.9278   73.6223   -5.7870 H   0  0  0  0  0  0  0  0  0  0  0  0
 25 28  1  0
 25 24  1  0
 25 26  1  6
 25 27  2  0
  1  4  1  0
  1 24  1  0
  1  2  1  1
  1  3  2  0
  6 11  1  0
  6 12  1  0
 29 36  1  0
 29 37  1  0
  9  7  1  6
  7 13  1  0
 10  8  1  1
  8 14  1  0
 37 28  1  1
  4  5  1  0
 33 30  1  6
 30 38  1  0
 34 31  1  1
 31 39  1  0
 35 32  1  1
 32 40  1  0
 41 42  1  0
 41 43  1  0
 15 19  2  0
 16 22  2  0
 12 17  1  6
 17 19  1  0
 17 20  1  0
 18 19  1  0
 18 22  1  0
 18 23  1  0
  9 10  1  0
  9 11  1  0
 10 12  1  0
 11  5  1  6
 33 34  1  0
 33 35  1  0
 34 36  1  0
 35 37  1  0
 36 42  1  6
 20 21  2  0
 21 22  1  0
M  CHG  2   2  -1  26  -1
M  END
>  <COMPND>  (25) 
    8629 

>  <AUTHOR>  (25) 
    GENERATED BY OPEN BABEL 3.1.1

>  <MASTER>  (25) 
        0    0    0    0    0    0    0    0   58    0   58    0

>  <minimizedAffinity>  (25) 
-7.34155

>  <CNNscore>  (25) 
0.5097311139

>  <CNNaffinity>  (25) 
4.2591934204

>  <CNN_VS>  (25) 
2.1710433960

>  <CNNaffinity_variance>  (25) 
0.5574442148

$$$$
26
     RDKit          3D

 43 45  0  0  0  0  0  0  0  0999 V2000
   21.6556   71.3962   -1.7754 P   0  0  2  0  0  0  0  0  0  0  0  0
   23.0242   70.8046   -1.1474 O   0  0  0  0  0  0  0  0  0  0  0  0
   21.0481   72.5355   -1.0110 O   0  0  0  0  0  0  0  0  0  0  0  0
   20.7160   70.0917   -1.9572 O   0  0  0  0  0  0  0  0  0  0  0  0
   20.0631   69.8965   -3.1996 C   0  0  0  0  0  0  0  0  0  0  0  0
   17.9719   70.6624   -4.1019 O   0  0  0  0  0  0  0  0  0  0  0  0
   16.6668   68.7071   -2.2406 O   0  0  0  0  0  0  0  0  0  0  0  0
   16.5941   67.3934   -4.6292 O   0  0  0  0  0  0  0  0  0  0  0  0
   17.8942   68.5885   -2.9581 C   0  0  1  0  0  0  0  0  0  0  0  0
   17.6227   68.3410   -4.4273 C   0  0  2  0  0  0  0  0  0  0  0  0
   18.5573   69.9600   -2.9837 C   0  0  1  0  0  0  0  0  0  0  0  0
   17.2433   69.7287   -4.9156 C   0  0  2  0  0  0  0  0  0  0  0  0
   16.2253   67.8434   -2.2106 H   0  0  0  0  0  0  0  0  0  0  0  0
   16.8835   66.5273   -4.3025 H   0  0  0  0  0  0  0  0  0  0  0  0
   15.8032   71.3881   -6.6907 O   0  0  0  0  0  0  0  0  0  0  0  0
   18.6718   70.4593  -10.1763 O   0  0  0  0  0  0  0  0  0  0  0  0
   17.5918   69.9391   -6.2925 N   0  0  0  0  0  0  0  0  0  0  0  0
   17.2329   70.9244   -8.4248 N   0  0  0  0  0  0  0  0  0  0  0  0
   16.8018   70.7914   -7.0987 C   0  0  0  0  0  0  0  0  0  0  0  0
   18.7062   69.3042   -6.8300 C   0  0  0  0  0  0  0  0  0  0  0  0
   19.1031   69.4406   -8.0970 C   0  0  0  0  0  0  0  0  0  0  0  0
   18.3326   70.3134   -9.0061 C   0  0  0  0  0  0  0  0  0  0  0  0
   16.6976   71.5130   -9.0052 H   0  0  0  0  0  0  0  0  0  0  0  0
   22.0778   71.7544   -3.2942 O   0  0  0  0  0  0  0  0  0  0  0  0
   22.6776   73.1106   -3.9375 P   0  0  2  0  0  0  0  0  0  0  0  0
   23.7848   72.5666   -4.9843 O   0  0  0  0  0  0  0  0  0  0  0  0
   23.2069   74.0884   -2.9287 O   0  0  0  0  0  0  0  0  0  0  0  0
   21.4874   73.6842   -4.8644 O   0  0  0  0  0  0  0  0  0  0  0  0
   19.2862   73.7056   -3.9865 O   0  0  0  0  0  0  0  0  0  0  0  0
   18.3958   74.0082   -8.0073 O   0  0  0  0  0  0  0  0  0  0  0  0
   18.0572   76.2956   -6.3040 O   0  0  0  0  0  0  0  0  0  0  0  0
   20.5720   72.3108   -7.1340 O   0  0  0  0  0  0  0  0  0  0  0  0
   19.1616   74.2381   -6.8214 C   0  0  1  0  0  0  0  0  0  0  0  0
   18.2766   74.9755   -5.8146 C   0  0  1  0  0  0  0  0  0  0  0  0
   19.6179   72.8953   -6.2539 C   0  0  2  0  0  0  0  0  0  0  0  0
   18.9342   75.0218   -4.4287 C   0  0  1  0  0  0  0  0  0  0  0  0
   20.2125   73.0471   -4.8526 C   0  0  1  0  0  0  0  0  0  0  0  0
   18.1034   74.8569   -8.3730 H   0  0  0  0  0  0  0  0  0  0  0  0
   17.6420   76.2522   -7.1797 H   0  0  0  0  0  0  0  0  0  0  0  0
   20.1834   72.2197   -8.0175 H   0  0  0  0  0  0  0  0  0  0  0  0
   16.6670   75.4670   -3.8199 O   0  0  0  0  0  0  0  0  0  0  0  0
   18.0024   75.6128   -3.3730 C   0  0  0  0  0  0  0  0  0  0  0  0
   16.0627   75.8385   -3.1578 H   0  0  0  0  0  0  0  0  0  0  0  0
 25 28  1  0
 25 24  1  0
 25 26  1  6
 25 27  2  0
  1  4  1  0
  1 24  1  0
  1  2  1  1
  1  3  2  0
  6 11  1  0
  6 12  1  0
 29 36  1  0
 29 37  1  0
  9  7  1  1
  7 13  1  0
 10  8  1  1
  8 14  1  0
 37 28  1  6
  4  5  1  0
 33 30  1  6
 30 38  1  0
 34 31  1  6
 31 39  1  0
 35 32  1  6
 32 40  1  0
 41 42  1  0
 41 43  1  0
 15 19  2  0
 16 22  2  0
 12 17  1  6
 17 19  1  0
 17 20  1  0
 18 19  1  0
 18 22  1  0
 18 23  1  0
  9 10  1  0
  9 11  1  0
 10 12  1  0
 11  5  1  6
 33 34  1  0
 33 35  1  0
 34 36  1  0
 35 37  1  0
 36 42  1  1
 20 21  2  0
 21 22  1  0
M  CHG  2   2  -1  26  -1
M  END
>  <COMPND>  (26) 
    8629 

>  <AUTHOR>  (26) 
    GENERATED BY OPEN BABEL 3.1.1

>  <MASTER>  (26) 
        0    0    0    0    0    0    0    0   58    0   58    0

>  <minimizedAffinity>  (26) 
-7.21321

>  <CNNscore>  (26) 
0.4911783338

>  <CNNaffinity>  (26) 
4.2532243729

>  <CNN_VS>  (26) 
2.0890917778

>  <CNNaffinity_variance>  (26) 
0.4171651006

$$$$
27
     RDKit          3D

 43 45  0  0  0  0  0  0  0  0999 V2000
   21.7379   71.2102   -1.7840 P   0  0  2  0  0  0  0  0  0  0  0  0
   23.3333   71.1051   -2.0312 O   0  0  0  0  0  0  0  0  0  0  0  0
   21.1903   70.2549   -0.7648 O   0  0  0  0  0  0  0  0  0  0  0  0
   21.1062   71.0916   -3.2689 O   0  0  0  0  0  0  0  0  0  0  0  0
   20.4130   69.9056   -3.6160 C   0  0  0  0  0  0  0  0  0  0  0  0
   18.3403   70.8021   -4.4371 O   0  0  0  0  0  0  0  0  0  0  0  0
   16.9933   69.0203   -2.4368 O   0  0  0  0  0  0  0  0  0  0  0  0
   16.6893   67.6353   -4.7661 O   0  0  0  0  0  0  0  0  0  0  0  0
   18.1668   68.7810   -3.2120 C   0  0  1  0  0  0  0  0  0  0  0  0
   17.7969   68.5055   -4.6545 C   0  0  2  0  0  0  0  0  0  0  0  0
   18.9305   70.0946   -3.3247 C   0  0  1  0  0  0  0  0  0  0  0  0
   17.4988   69.9012   -5.1754 C   0  0  2  0  0  0  0  0  0  0  0  0
   16.4891   68.1954   -2.3507 H   0  0  0  0  0  0  0  0  0  0  0  0
   16.9290   66.7608   -4.4219 H   0  0  0  0  0  0  0  0  0  0  0  0
   15.9095   71.3617   -6.9973 O   0  0  0  0  0  0  0  0  0  0  0  0
   18.6983   70.3492  -10.5242 O   0  0  0  0  0  0  0  0  0  0  0  0
   17.7864   70.0362   -6.5756 N   0  0  0  0  0  0  0  0  0  0  0  0
   17.2995   70.8565   -8.7519 N   0  0  0  0  0  0  0  0  0  0  0  0
   16.9236   70.7909   -7.4042 C   0  0  0  0  0  0  0  0  0  0  0  0
   18.9134   69.4246   -7.1137 C   0  0  0  0  0  0  0  0  0  0  0  0
   19.2572   69.4958   -8.4013 C   0  0  0  0  0  0  0  0  0  0  0  0
   18.4091   70.2650   -9.3346 C   0  0  0  0  0  0  0  0  0  0  0  0
   16.7132   71.3765   -9.3482 H   0  0  0  0  0  0  0  0  0  0  0  0
   21.5280   72.7719   -1.4235 O   0  0  0  0  0  0  0  0  0  0  0  0
   22.2544   74.0994   -1.9917 P   0  0  2  0  0  0  0  0  0  0  0  0
   23.7296   74.0268   -1.3312 O   0  0  0  0  0  0  0  0  0  0  0  0
   21.5127   75.3743   -1.7118 O   0  0  0  0  0  0  0  0  0  0  0  0
   22.4939   73.7952   -3.5586 O   0  0  0  0  0  0  0  0  0  0  0  0
   22.9706   75.2771   -5.3455 O   0  0  0  0  0  0  0  0  0  0  0  0
   20.5574   72.5879   -7.3444 O   0  0  0  0  0  0  0  0  0  0  0  0
   23.3836   72.6085   -7.8549 O   0  0  0  0  0  0  0  0  0  0  0  0
   19.9362   73.3359   -4.6179 O   0  0  0  0  0  0  0  0  0  0  0  0
   21.5366   72.9974   -6.3858 C   0  0  1  0  0  0  0  0  0  0  0  0
   22.7059   73.6364   -7.1375 C   0  0  1  0  0  0  0  0  0  0  0  0
   20.9037   74.0006   -5.4232 C   0  0  2  0  0  0  0  0  0  0  0  0
   23.6694   74.3375   -6.1704 C   0  0  1  0  0  0  0  0  0  0  0  0
   21.9545   74.6763   -4.5403 C   0  0  1  0  0  0  0  0  0  0  0  0
   20.9527   71.9505   -7.9584 H   0  0  0  0  0  0  0  0  0  0  0  0
   22.7640   72.1735   -8.4615 H   0  0  0  0  0  0  0  0  0  0  0  0
   19.2766   72.9125   -5.1884 H   0  0  0  0  0  0  0  0  0  0  0  0
   25.8622   74.2549   -7.1158 O   0  0  0  0  0  0  0  0  0  0  0  0
   24.7565   75.1147   -6.9094 C   0  0  0  0  0  0  0  0  0  0  0  0
   26.5619   74.7360   -7.5855 H   0  0  0  0  0  0  0  0  0  0  0  0
 25 28  1  0
 25 24  1  0
 25 26  1  1
 25 27  2  0
  1  4  1  0
  1 24  1  0
  1  2  1  6
  1  3  2  0
  6 11  1  0
  6 12  1  0
 29 36  1  0
 29 37  1  0
  9  7  1  1
  7 13  1  0
 10  8  1  1
  8 14  1  0
 37 28  1  1
  4  5  1  0
 33 30  1  6
 30 38  1  0
 34 31  1  1
 31 39  1  0
 35 32  1  1
 32 40  1  0
 41 42  1  0
 41 43  1  0
 15 19  2  0
 16 22  2  0
 12 17  1  6
 17 19  1  0
 17 20  1  0
 18 19  1  0
 18 22  1  0
 18 23  1  0
  9 10  1  0
  9 11  1  0
 10 12  1  0
 11  5  1  6
 33 34  1  0
 33 35  1  0
 34 36  1  0
 35 37  1  0
 36 42  1  6
 20 21  2  0
 21 22  1  0
M  CHG  2   2  -1  26  -1
M  END
>  <COMPND>  (27) 
    8629 

>  <AUTHOR>  (27) 
    GENERATED BY OPEN BABEL 3.1.1

>  <MASTER>  (27) 
        0    0    0    0    0    0    0    0   58    0   58    0

>  <minimizedAffinity>  (27) 
-7.97290

>  <CNNscore>  (27) 
0.4741476178

>  <CNNaffinity>  (27) 
4.2141499519

>  <CNN_VS>  (27) 
1.9981291294

>  <CNNaffinity_variance>  (27) 
0.6565723419

$$$$
28
     RDKit          3D

 43 45  0  0  0  0  0  0  0  0999 V2000
   17.0920   70.7545   -2.4381 P   0  0  2  0  0  0  0  0  0  0  0  0
   15.9635   71.8574   -2.7952 O   0  0  0  0  0  0  0  0  0  0  0  0
   16.5614   69.3954   -2.0875 O   0  0  0  0  0  0  0  0  0  0  0  0
   17.9907   71.4728   -1.3005 O   0  0  0  0  0  0  0  0  0  0  0  0
   17.5949   72.7505   -0.8329 C   0  0  0  0  0  0  0  0  0  0  0  0
   19.7079   72.4583    0.2733 O   0  0  0  0  0  0  0  0  0  0  0  0
   18.9928   74.8893    1.8763 O   0  0  0  0  0  0  0  0  0  0  0  0
   20.7199   75.8896    0.0180 O   0  0  0  0  0  0  0  0  0  0  0  0
   18.7183   74.5988    0.5068 C   0  0  1  0  0  0  0  0  0  0  0  0
   19.9780   74.7362   -0.3226 C   0  0  2  0  0  0  0  0  0  0  0  0
   18.4236   73.1083    0.3933 C   0  0  1  0  0  0  0  0  0  0  0  0
   20.7143   73.4489    0.0073 C   0  0  2  0  0  0  0  0  0  0  0  0
   19.1837   75.8359    1.9739 H   0  0  0  0  0  0  0  0  0  0  0  0
   20.2094   76.6818   -0.2110 H   0  0  0  0  0  0  0  0  0  0  0  0
   23.1043   71.9776    0.3258 O   0  0  0  0  0  0  0  0  0  0  0  0
   23.7967   71.7668   -4.2258 O   0  0  0  0  0  0  0  0  0  0  0  0
   21.5389   72.9962   -1.0774 N   0  0  0  0  0  0  0  0  0  0  0  0
   23.4470   71.8737   -1.9408 N   0  0  0  0  0  0  0  0  0  0  0  0
   22.7198   72.2654   -0.8095 C   0  0  0  0  0  0  0  0  0  0  0  0
   21.1739   73.2775   -2.3895 C   0  0  0  0  0  0  0  0  0  0  0  0
   21.8791   72.8979   -3.4572 C   0  0  0  0  0  0  0  0  0  0  0  0
   23.1262   72.1301   -3.2644 C   0  0  0  0  0  0  0  0  0  0  0  0
   24.2737   71.3637   -1.7785 H   0  0  0  0  0  0  0  0  0  0  0  0
   18.0550   70.7865   -3.7359 O   0  0  0  0  0  0  0  0  0  0  0  0
   19.1158   69.7038   -4.2976 P   0  0  2  0  0  0  0  0  0  0  0  0
   18.2930   68.3121   -4.2367 O   0  0  0  0  0  0  0  0  0  0  0  0
   20.4231   69.6831   -3.5598 O   0  0  0  0  0  0  0  0  0  0  0  0
   19.2417   70.0342   -5.8724 O   0  0  0  0  0  0  0  0  0  0  0  0
   17.0107   70.2802   -6.6331 O   0  0  0  0  0  0  0  0  0  0  0  0
   18.9990   70.9714  -10.1855 O   0  0  0  0  0  0  0  0  0  0  0  0
   17.7459   73.1607   -8.8127 O   0  0  0  0  0  0  0  0  0  0  0  0
   19.9720   68.9503   -8.3557 O   0  0  0  0  0  0  0  0  0  0  0  0
   18.8078   71.0180   -8.7690 C   0  0  1  0  0  0  0  0  0  0  0  0
   17.5197   71.7928   -8.4841 C   0  0  1  0  0  0  0  0  0  0  0  0
   18.7071   69.5916   -8.2316 C   0  0  2  0  0  0  0  0  0  0  0  0
   17.1061   71.6582   -7.0124 C   0  0  1  0  0  0  0  0  0  0  0  0
   18.2416   69.5684   -6.7747 C   0  0  1  0  0  0  0  0  0  0  0  0
   19.0641   71.8739  -10.5329 H   0  0  0  0  0  0  0  0  0  0  0  0
   18.0068   73.2318   -9.7444 H   0  0  0  0  0  0  0  0  0  0  0  0
   20.2555   68.9713   -9.2826 H   0  0  0  0  0  0  0  0  0  0  0  0
   15.2208   71.7387   -5.5467 O   0  0  0  0  0  0  0  0  0  0  0  0
   15.7429   72.2909   -6.7412 C   0  0  0  0  0  0  0  0  0  0  0  0
   14.3534   72.1325   -5.3614 H   0  0  0  0  0  0  0  0  0  0  0  0
 25 28  1  0
 25 24  1  0
 25 26  1  6
 25 27  2  0
  1  4  1  0
  1 24  1  0
  1  2  1  6
  1  3  2  0
  6 11  1  0
  6 12  1  0
 29 36  1  0
 29 37  1  0
  9  7  1  1
  7 13  1  0
 10  8  1  1
  8 14  1  0
 37 28  1  1
  4  5  1  0
 33 30  1  6
 30 38  1  0
 34 31  1  1
 31 39  1  0
 35 32  1  1
 32 40  1  0
 41 42  1  0
 41 43  1  0
 15 19  2  0
 16 22  2  0
 12 17  1  6
 17 19  1  0
 17 20  1  0
 18 19  1  0
 18 22  1  0
 18 23  1  0
  9 10  1  0
  9 11  1  0
 10 12  1  0
 11  5  1  6
 33 34  1  0
 33 35  1  0
 34 36  1  0
 35 37  1  0
 36 42  1  6
 20 21  2  0
 21 22  1  0
M  CHG  2   2  -1  26  -1
M  END
>  <COMPND>  (28) 
    8629 

>  <AUTHOR>  (28) 
    GENERATED BY OPEN BABEL 3.1.1

>  <MASTER>  (28) 
        0    0    0    0    0    0    0    0   58    0   58    0

>  <minimizedAffinity>  (28) 
-7.89090

>  <CNNscore>  (28) 
0.4510554969

>  <CNNaffinity>  (28) 
3.9639904499

>  <CNN_VS>  (28) 
1.7879797220

>  <CNNaffinity_variance>  (28) 
0.6918779016

$$$$
29
     RDKit          3D

 43 45  0  0  0  0  0  0  0  0999 V2000
   17.5394   69.1203   -4.1330 P   0  0  2  0  0  0  0  0  0  0  0  0
   18.0066   67.7713   -3.3718 O   0  0  0  0  0  0  0  0  0  0  0  0
   16.0553   69.2802   -4.2859 O   0  0  0  0  0  0  0  0  0  0  0  0
   18.3898   69.1040   -5.5094 O   0  0  0  0  0  0  0  0  0  0  0  0
   18.4954   70.3055   -6.2532 C   0  0  0  0  0  0  0  0  0  0  0  0
   16.4099   70.4273   -7.4404 O   0  0  0  0  0  0  0  0  0  0  0  0
   18.0545   70.4744   -9.9472 O   0  0  0  0  0  0  0  0  0  0  0  0
   17.3968   73.1004   -9.6183 O   0  0  0  0  0  0  0  0  0  0  0  0
   18.3294   71.0621   -8.6766 C   0  0  1  0  0  0  0  0  0  0  0  0
   17.4635   72.2865   -8.4651 C   0  0  2  0  0  0  0  0  0  0  0  0
   17.8114   70.1164   -7.6002 C   0  0  1  0  0  0  0  0  0  0  0  0
   16.1230   71.6666   -8.1087 C   0  0  2  0  0  0  0  0  0  0  0  0
   18.3767   71.0602  -10.6507 H   0  0  0  0  0  0  0  0  0  0  0  0
   18.2737   73.4714   -9.8036 H   0  0  0  0  0  0  0  0  0  0  0  0
   14.2259   73.5693   -8.9799 O   0  0  0  0  0  0  0  0  0  0  0  0
   13.2157   74.8114   -4.6581 O   0  0  0  0  0  0  0  0  0  0  0  0
   15.3496   72.5007   -7.2327 N   0  0  0  0  0  0  0  0  0  0  0  0
   13.7243   74.1861   -6.8273 N   0  0  0  0  0  0  0  0  0  0  0  0
   14.4243   73.4247   -7.7718 C   0  0  0  0  0  0  0  0  0  0  0  0
   15.5120   72.3976   -5.8554 C   0  0  0  0  0  0  0  0  0  0  0  0
   14.8376   73.1320   -4.9681 C   0  0  0  0  0  0  0  0  0  0  0  0
   13.8515   74.1211   -5.4487 C   0  0  0  0  0  0  0  0  0  0  0  0
   13.0745   74.8367   -7.1797 H   0  0  0  0  0  0  0  0  0  0  0  0
   18.2571   70.2882   -3.2763 O   0  0  0  0  0  0  0  0  0  0  0  0
   19.5713   70.2597   -2.3355 P   0  0  2  0  0  0  0  0  0  0  0  0
   20.7273   69.7180   -3.3293 O   0  0  0  0  0  0  0  0  0  0  0  0
   19.4100   69.4568   -1.0772 O   0  0  0  0  0  0  0  0  0  0  0  0
   19.9355   71.8136   -2.0953 O   0  0  0  0  0  0  0  0  0  0  0  0
   21.2055   73.6325   -2.9292 O   0  0  0  0  0  0  0  0  0  0  0  0
   22.9930   73.2207    0.7702 O   0  0  0  0  0  0  0  0  0  0  0  0
   21.2637   75.4589    0.2724 O   0  0  0  0  0  0  0  0  0  0  0  0
   22.1887   70.8695   -0.7146 O   0  0  0  0  0  0  0  0  0  0  0  0
   21.9098   73.1975   -0.1632 C   0  0  1  0  0  0  0  0  0  0  0  0
   21.7552   74.6006   -0.7534 C   0  0  1  0  0  0  0  0  0  0  0  0
   22.2196   72.1830   -1.2624 C   0  0  2  0  0  0  0  0  0  0  0  0
   20.7955   74.5952   -1.9510 C   0  0  1  0  0  0  0  0  0  0  0  0
   21.2352   72.2947   -2.4279 C   0  0  1  0  0  0  0  0  0  0  0  0
   22.8023   73.8625    1.4711 H   0  0  0  0  0  0  0  0  0  0  0  0
   21.8785   75.4528    1.0228 H   0  0  0  0  0  0  0  0  0  0  0  0
   22.8163   70.8117    0.0220 H   0  0  0  0  0  0  0  0  0  0  0  0
   21.9704   76.6240   -2.4120 O   0  0  0  0  0  0  0  0  0  0  0  0
   20.7482   75.9511   -2.6520 C   0  0  0  0  0  0  0  0  0  0  0  0
   21.9547   77.4886   -2.8525 H   0  0  0  0  0  0  0  0  0  0  0  0
 25 28  1  0
 25 24  1  0
 25 26  1  6
 25 27  2  0
  1  4  1  0
  1 24  1  0
  1  2  1  1
  1  3  2  0
  6 11  1  0
  6 12  1  0
 29 36  1  0
 29 37  1  0
  9  7  1  6
  7 13  1  0
 10  8  1  6
  8 14  1  0
 37 28  1  1
  4  5  1  0
 33 30  1  1
 30 38  1  0
 34 31  1  1
 31 39  1  0
 35 32  1  1
 32 40  1  0
 41 42  1  0
 41 43  1  0
 15 19  2  0
 16 22  2  0
 12 17  1  1
 17 19  1  0
 17 20  1  0
 18 19  1  0
 18 22  1  0
 18 23  1  0
  9 10  1  0
  9 11  1  0
 10 12  1  0
 11  5  1  1
 33 34  1  0
 33 35  1  0
 34 36  1  0
 35 37  1  0
 36 42  1  6
 20 21  2  0
 21 22  1  0
M  CHG  2   2  -1  26  -1
M  END
>  <COMPND>  (29) 
    8629 

>  <AUTHOR>  (29) 
    GENERATED BY OPEN BABEL 3.1.1

>  <MASTER>  (29) 
        0    0    0    0    0    0    0    0   58    0   58    0

>  <minimizedAffinity>  (29) 
-7.35545

>  <CNNscore>  (29) 
0.4498955309

>  <CNNaffinity>  (29) 
4.1529784203

>  <CNN_VS>  (29) 
1.8684064150

>  <CNNaffinity_variance>  (29) 
0.1963523924

$$$$
30
     RDKit          3D

 43 45  0  0  0  0  0  0  0  0999 V2000
   20.3697   72.4823   -5.5644 P   0  0  2  0  0  0  0  0  0  0  0  0
   20.4356   73.5514   -6.7769 O   0  0  0  0  0  0  0  0  0  0  0  0
   21.6636   72.2713   -4.8345 O   0  0  0  0  0  0  0  0  0  0  0  0
   19.7231   71.1638   -6.2438 O   0  0  0  0  0  0  0  0  0  0  0  0
   18.3520   70.8887   -6.0153 C   0  0  0  0  0  0  0  0  0  0  0  0
   16.2759   70.7605   -7.2183 O   0  0  0  0  0  0  0  0  0  0  0  0
   17.9423   70.6286   -9.7076 O   0  0  0  0  0  0  0  0  0  0  0  0
   17.1335   73.2326   -9.6710 O   0  0  0  0  0  0  0  0  0  0  0  0
   18.1697   71.3660   -8.5077 C   0  0  1  0  0  0  0  0  0  0  0  0
   17.2336   72.5544   -8.4355 C   0  0  2  0  0  0  0  0  0  0  0  0
   17.6944   70.5150   -7.3367 C   0  0  1  0  0  0  0  0  0  0  0  0
   15.9266   71.9010   -8.0195 C   0  0  2  0  0  0  0  0  0  0  0  0
   18.2384   71.1518  -10.4695 H   0  0  0  0  0  0  0  0  0  0  0  0
   17.9899   73.6309   -9.8918 H   0  0  0  0  0  0  0  0  0  0  0  0
   14.0290   73.6844   -9.1135 O   0  0  0  0  0  0  0  0  0  0  0  0
   12.8037   75.2256   -4.9464 O   0  0  0  0  0  0  0  0  0  0  0  0
   15.0977   72.7798   -7.2435 N   0  0  0  0  0  0  0  0  0  0  0  0
   13.4203   74.4502   -7.0377 N   0  0  0  0  0  0  0  0  0  0  0  0
   14.1773   73.6369   -7.8906 C   0  0  0  0  0  0  0  0  0  0  0  0
   15.2018   72.7856   -5.8568 C   0  0  0  0  0  0  0  0  0  0  0  0
   14.4735   73.5682   -5.0578 C   0  0  0  0  0  0  0  0  0  0  0  0
   13.4883   74.4933   -5.6542 C   0  0  0  0  0  0  0  0  0  0  0  0
   12.7728   75.0559   -7.4662 H   0  0  0  0  0  0  0  0  0  0  0  0
   19.1642   73.0467   -4.6472 O   0  0  0  0  0  0  0  0  0  0  0  0
   19.0514   74.3855   -3.7484 P   0  0  2  0  0  0  0  0  0  0  0  0
   17.5751   74.2714   -3.0964 O   0  0  0  0  0  0  0  0  0  0  0  0
   19.2970   75.6579   -4.5063 O   0  0  0  0  0  0  0  0  0  0  0  0
   20.0622   74.1358   -2.5151 O   0  0  0  0  0  0  0  0  0  0  0  0
   19.2898   72.1441   -1.4888 O   0  0  0  0  0  0  0  0  0  0  0  0
   22.5213   72.9363    0.9568 O   0  0  0  0  0  0  0  0  0  0  0  0
   22.6609   70.7659   -0.9189 O   0  0  0  0  0  0  0  0  0  0  0  0
   20.8772   75.1122   -0.0136 O   0  0  0  0  0  0  0  0  0  0  0  0
   21.7981   72.9022   -0.2766 C   0  0  1  0  0  0  0  0  0  0  0  0
   21.4523   71.4451   -0.5898 C   0  0  1  0  0  0  0  0  0  0  0  0
   20.5272   73.7376   -0.1333 C   0  0  2  0  0  0  0  0  0  0  0  0
   20.4529   71.3501   -1.7504 C   0  0  1  0  0  0  0  0  0  0  0  0
   19.5802   73.5327   -1.3171 C   0  0  1  0  0  0  0  0  0  0  0  0
   23.3296   72.4081    0.8724 H   0  0  0  0  0  0  0  0  0  0  0  0
   23.2835   70.8339   -0.1780 H   0  0  0  0  0  0  0  0  0  0  0  0
   21.4766   75.2288    0.7394 H   0  0  0  0  0  0  0  0  0  0  0  0
   20.0703   69.2131   -0.7526 O   0  0  0  0  0  0  0  0  0  0  0  0
   19.9736   69.9179   -1.9766 C   0  0  0  0  0  0  0  0  0  0  0  0
   19.7682   68.2999   -0.8813 H   0  0  0  0  0  0  0  0  0  0  0  0
 25 28  1  0
 25 24  1  0
 25 26  1  1
 25 27  2  0
  1  4  1  0
  1 24  1  0
  1  2  1  6
  1  3  2  0
  6 11  1  0
  6 12  1  0
 29 36  1  0
 29 37  1  0
  9  7  1  6
  7 13  1  0
 10  8  1  6
  8 14  1  0
 37 28  1  6
  4  5  1  0
 33 30  1  1
 30 38  1  0
 34 31  1  6
 31 39  1  0
 35 32  1  6
 32 40  1  0
 41 42  1  0
 41 43  1  0
 15 19  2  0
 16 22  2  0
 12 17  1  1
 17 19  1  0
 17 20  1  0
 18 19  1  0
 18 22  1  0
 18 23  1  0
  9 10  1  0
  9 11  1  0
 10 12  1  0
 11  5  1  1
 33 34  1  0
 33 35  1  0
 34 36  1  0
 35 37  1  0
 36 42  1  1
 20 21  2  0
 21 22  1  0
M  CHG  2   2  -1  26  -1
M  END
>  <COMPND>  (30) 
    8629 

>  <AUTHOR>  (30) 
    GENERATED BY OPEN BABEL 3.1.1

>  <MASTER>  (30) 
        0    0    0    0    0    0    0    0   58    0   58    0

>  <minimizedAffinity>  (30) 
-6.66388

>  <CNNscore>  (30) 
0.4475531578

>  <CNNaffinity>  (30) 
4.0508475304

>  <CNN_VS>  (30) 
1.8129695654

>  <CNNaffinity_variance>  (30) 
0.1435243338

$$$$
31
     RDKit          3D

 43 45  0  0  0  0  0  0  0  0999 V2000
   16.3425   72.8379   -2.8029 P   0  0  2  0  0  0  0  0  0  0  0  0
   15.2029   72.0748   -3.6611 O   0  0  0  0  0  0  0  0  0  0  0  0
   15.8342   73.6153   -1.6244 O   0  0  0  0  0  0  0  0  0  0  0  0
   17.1558   73.6923   -3.9103 O   0  0  0  0  0  0  0  0  0  0  0  0
   16.6129   73.7988   -5.2148 C   0  0  0  0  0  0  0  0  0  0  0  0
   18.4364   72.3076   -5.6890 O   0  0  0  0  0  0  0  0  0  0  0  0
   18.0986   73.1076   -8.5589 O   0  0  0  0  0  0  0  0  0  0  0  0
   16.8534   70.6831   -8.4671 O   0  0  0  0  0  0  0  0  0  0  0  0
   17.1058   72.9212   -7.5514 C   0  0  1  0  0  0  0  0  0  0  0  0
   16.9044   71.4453   -7.2783 C   0  0  2  0  0  0  0  0  0  0  0  0
   17.6809   73.4138   -6.2293 C   0  0  1  0  0  0  0  0  0  0  0  0
   18.1160   71.1148   -6.4234 C   0  0  2  0  0  0  0  0  0  0  0  0
   17.7541   72.8004   -9.4127 H   0  0  0  0  0  0  0  0  0  0  0  0
   16.0654   70.9298   -8.9760 H   0  0  0  0  0  0  0  0  0  0  0  0
   20.0646   69.9613   -4.7351 O   0  0  0  0  0  0  0  0  0  0  0  0
   17.0099   67.0372   -2.9023 O   0  0  0  0  0  0  0  0  0  0  0  0
   17.8574   70.0507   -5.4949 N   0  0  0  0  0  0  0  0  0  0  0  0
   18.5420   68.5064   -3.8237 N   0  0  0  0  0  0  0  0  0  0  0  0
   18.9061   69.5420   -4.6937 C   0  0  0  0  0  0  0  0  0  0  0  0
   16.5754   69.5230   -5.3852 C   0  0  0  0  0  0  0  0  0  0  0  0
   16.2449   68.5346   -4.5516 C   0  0  0  0  0  0  0  0  0  0  0  0
   17.2822   67.9470   -3.6793 C   0  0  0  0  0  0  0  0  0  0  0  0
   19.2563   68.1360   -3.2560 H   0  0  0  0  0  0  0  0  0  0  0  0
   17.3738   71.6500   -2.4310 O   0  0  0  0  0  0  0  0  0  0  0  0
   18.3666   71.4624   -1.1692 P   0  0  2  0  0  0  0  0  0  0  0  0
   18.5866   69.8608   -1.1051 O   0  0  0  0  0  0  0  0  0  0  0  0
   17.8607   72.0695    0.1073 O   0  0  0  0  0  0  0  0  0  0  0  0
   19.7833   72.0487   -1.6733 O   0  0  0  0  0  0  0  0  0  0  0  0
   22.0066   71.2491   -1.8577 O   0  0  0  0  0  0  0  0  0  0  0  0
   22.7628   74.8961   -0.0750 O   0  0  0  0  0  0  0  0  0  0  0  0
   23.4231   74.5067   -2.8427 O   0  0  0  0  0  0  0  0  0  0  0  0
   20.4475   73.3520    0.7216 O   0  0  0  0  0  0  0  0  0  0  0  0
   22.0758   73.9846   -0.9366 C   0  0  1  0  0  0  0  0  0  0  0  0
   23.0774   73.4438   -1.9590 C   0  0  1  0  0  0  0  0  0  0  0  0
   21.4955   72.8468   -0.0987 C   0  0  2  0  0  0  0  0  0  0  0  0
   22.4854   72.2663   -2.7452 C   0  0  1  0  0  0  0  0  0  0  0  0
   20.9784   71.7057   -0.9766 C   0  0  1  0  0  0  0  0  0  0  0  0
   23.1333   75.6213   -0.6007 H   0  0  0  0  0  0  0  0  0  0  0  0
   23.7953   75.2440   -2.3336 H   0  0  0  0  0  0  0  0  0  0  0  0
   20.7876   74.0734    1.2727 H   0  0  0  0  0  0  0  0  0  0  0  0
   23.6911   72.4284   -4.8017 O   0  0  0  0  0  0  0  0  0  0  0  0
   23.5190   71.6111   -3.6586 C   0  0  0  0  0  0  0  0  0  0  0  0
   24.3465   72.0239   -5.3920 H   0  0  0  0  0  0  0  0  0  0  0  0
 25 28  1  0
 25 24  1  0
 25 26  1  1
 25 27  2  0
  1  4  1  0
  1 24  1  0
  1  2  1  6
  1  3  2  0
  6 11  1  0
  6 12  1  0
 29 36  1  0
 29 37  1  0
  9  7  1  6
  7 13  1  0
 10  8  1  6
  8 14  1  0
 37 28  1  6
  4  5  1  0
 33 30  1  1
 30 38  1  0
 34 31  1  6
 31 39  1  0
 35 32  1  6
 32 40  1  0
 41 42  1  0
 41 43  1  0
 15 19  2  0
 16 22  2  0
 12 17  1  1
 17 19  1  0
 17 20  1  0
 18 19  1  0
 18 22  1  0
 18 23  1  0
  9 10  1  0
  9 11  1  0
 10 12  1  0
 11  5  1  1
 33 34  1  0
 33 35  1  0
 34 36  1  0
 35 37  1  0
 36 42  1  6
 20 21  2  0
 21 22  1  0
M  CHG  2   2  -1  26  -1
M  END
>  <COMPND>  (31) 
    8629 

>  <AUTHOR>  (31) 
    GENERATED BY OPEN BABEL 3.1.1

>  <MASTER>  (31) 
        0    0    0    0    0    0    0    0   58    0   58    0

>  <minimizedAffinity>  (31) 
-7.15700

>  <CNNscore>  (31) 
0.4355720282

>  <CNNaffinity>  (31) 
3.9597954750

>  <CNN_VS>  (31) 
1.7247761488

>  <CNNaffinity_variance>  (31) 
0.7518188357

$$$$
32
     RDKit          3D

 43 45  0  0  0  0  0  0  0  0999 V2000
   22.8443   71.7606   -3.5437 P   0  0  2  0  0  0  0  0  0  0  0  0
   23.5162   72.4816   -4.8267 O   0  0  0  0  0  0  0  0  0  0  0  0
   23.6601   70.6566   -2.9377 O   0  0  0  0  0  0  0  0  0  0  0  0
   21.3698   71.3416   -4.0616 O   0  0  0  0  0  0  0  0  0  0  0  0
   20.8301   70.1028   -3.6351 C   0  0  0  0  0  0  0  0  0  0  0  0
   18.6841   70.9595   -4.2944 O   0  0  0  0  0  0  0  0  0  0  0  0
   17.5466   69.2961   -2.0741 O   0  0  0  0  0  0  0  0  0  0  0  0
   17.0152   67.7850   -4.2811 O   0  0  0  0  0  0  0  0  0  0  0  0
   18.6377   69.0101   -2.9477 C   0  0  1  0  0  0  0  0  0  0  0  0
   18.1267   68.6563   -4.3287 C   0  0  2  0  0  0  0  0  0  0  0  0
   19.3836   70.3128   -3.2087 C   0  0  1  0  0  0  0  0  0  0  0  0
   17.7752   70.0219   -4.8941 C   0  0  2  0  0  0  0  0  0  0  0  0
   17.0553   68.4790   -1.8925 H   0  0  0  0  0  0  0  0  0  0  0  0
   17.2898   66.9301   -3.9143 H   0  0  0  0  0  0  0  0  0  0  0  0
   15.9570   71.3021   -6.6358 O   0  0  0  0  0  0  0  0  0  0  0  0
   18.4381   70.1725  -10.3519 O   0  0  0  0  0  0  0  0  0  0  0  0
   17.9217   70.0780   -6.3213 N   0  0  0  0  0  0  0  0  0  0  0  0
   17.1940   70.7387   -8.4847 N   0  0  0  0  0  0  0  0  0  0  0  0
   16.9516   70.7451   -7.1051 C   0  0  0  0  0  0  0  0  0  0  0  0
   19.0179   69.4763   -6.9296 C   0  0  0  0  0  0  0  0  0  0  0  0
   19.2338   69.4780   -8.2466 C   0  0  0  0  0  0  0  0  0  0  0  0
   18.2677   70.1535   -9.1368 C   0  0  0  0  0  0  0  0  0  0  0  0
   16.5312   71.1971   -9.0507 H   0  0  0  0  0  0  0  0  0  0  0  0
   22.5419   72.9978   -2.5484 O   0  0  0  0  0  0  0  0  0  0  0  0
   22.6030   73.1029   -0.9365 P   0  0  2  0  0  0  0  0  0  0  0  0
   24.1599   73.4324   -0.6449 O   0  0  0  0  0  0  0  0  0  0  0  0
   22.0820   71.8905   -0.2206 O   0  0  0  0  0  0  0  0  0  0  0  0
   21.8240   74.4725   -0.5866 O   0  0  0  0  0  0  0  0  0  0  0  0
   19.5848   73.8655   -1.0703 O   0  0  0  0  0  0  0  0  0  0  0  0
   18.9182   77.5987    0.5637 O   0  0  0  0  0  0  0  0  0  0  0  0
   18.2096   75.2502    2.0571 O   0  0  0  0  0  0  0  0  0  0  0  0
   21.2185   77.1568   -1.1372 O   0  0  0  0  0  0  0  0  0  0  0  0
   19.5763   76.3369    0.4224 C   0  0  1  0  0  0  0  0  0  0  0  0
   18.5503   75.2301    0.6737 C   0  0  1  0  0  0  0  0  0  0  0  0
   20.1497   76.2282   -0.9892 C   0  0  2  0  0  0  0  0  0  0  0  0
   19.1102   73.8562    0.2811 C   0  0  1  0  0  0  0  0  0  0  0  0
   20.6338   74.8095   -1.2945 C   0  0  1  0  0  0  0  0  0  0  0  0
   18.5523   77.6743    1.4580 H   0  0  0  0  0  0  0  0  0  0  0  0
   17.8578   76.1232    2.2920 H   0  0  0  0  0  0  0  0  0  0  0  0
   20.8991   78.0510   -0.9416 H   0  0  0  0  0  0  0  0  0  0  0  0
   18.0526   72.0294   -0.8384 O   0  0  0  0  0  0  0  0  0  0  0  0
   18.0518   72.7593    0.3746 C   0  0  0  0  0  0  0  0  0  0  0  0
   17.3840   71.3276   -0.7932 H   0  0  0  0  0  0  0  0  0  0  0  0
 25 28  1  0
 25 24  1  0
 25 26  1  6
 25 27  2  0
  1  4  1  0
  1 24  1  0
  1  2  1  6
  1  3  2  0
  6 11  1  0
  6 12  1  0
 29 36  1  0
 29 37  1  0
  9  7  1  1
  7 13  1  0
 10  8  1  1
  8 14  1  0
 37 28  1  1
  4  5  1  0
 33 30  1  6
 30 38  1  0
 34 31  1  1
 31 39  1  0
 35 32  1  1
 32 40  1  0
 41 42  1  0
 41 43  1  0
 15 19  2  0
 16 22  2  0
 12 17  1  6
 17 19  1  0
 17 20  1  0
 18 19  1  0
 18 22  1  0
 18 23  1  0
  9 10  1  0
  9 11  1  0
 10 12  1  0
 11  5  1  6
 33 34  1  0
 33 35  1  0
 34 36  1  0
 35 37  1  0
 36 42  1  6
 20 21  2  0
 21 22  1  0
M  CHG  2   2  -1  26  -1
M  END
>  <COMPND>  (32) 
    8629 

>  <AUTHOR>  (32) 
    GENERATED BY OPEN BABEL 3.1.1

>  <MASTER>  (32) 
        0    0    0    0    0    0    0    0   58    0   58    0

>  <minimizedAffinity>  (32) 
-6.94820

>  <CNNscore>  (32) 
0.4145624638

>  <CNNaffinity>  (32) 
4.3066768646

>  <CNN_VS>  (32) 
1.7853865623

>  <CNNaffinity_variance>  (32) 
0.0647364855

$$$$
33
     RDKit          3D

 43 45  0  0  0  0  0  0  0  0999 V2000
   22.6912   71.7931   -3.1832 P   0  0  2  0  0  0  0  0  0  0  0  0
   23.4135   72.5282   -4.4303 O   0  0  0  0  0  0  0  0  0  0  0  0
   23.4343   70.6150   -2.6251 O   0  0  0  0  0  0  0  0  0  0  0  0
   21.1968   71.4893   -3.7239 O   0  0  0  0  0  0  0  0  0  0  0  0
   20.6577   70.1934   -3.5290 C   0  0  0  0  0  0  0  0  0  0  0  0
   18.5063   70.9559   -4.2798 O   0  0  0  0  0  0  0  0  0  0  0  0
   17.3457   69.1810   -2.1600 O   0  0  0  0  0  0  0  0  0  0  0  0
   17.0070   67.7011   -4.4253 O   0  0  0  0  0  0  0  0  0  0  0  0
   18.4932   68.9733   -2.9817 C   0  0  1  0  0  0  0  0  0  0  0  0
   18.0724   68.6289   -4.3952 C   0  0  2  0  0  0  0  0  0  0  0  0
   19.1824   70.3185   -3.1739 C   0  0  1  0  0  0  0  0  0  0  0  0
   17.6793   69.9887   -4.9471 C   0  0  2  0  0  0  0  0  0  0  0  0
   16.8891   68.3356   -2.0228 H   0  0  0  0  0  0  0  0  0  0  0  0
   17.3068   66.8524   -4.0642 H   0  0  0  0  0  0  0  0  0  0  0  0
   15.9018   71.2440   -6.7478 O   0  0  0  0  0  0  0  0  0  0  0  0
   18.6097   70.3096  -10.3583 O   0  0  0  0  0  0  0  0  0  0  0  0
   17.8951   70.0883   -6.3630 N   0  0  0  0  0  0  0  0  0  0  0  0
   17.2516   70.7779   -8.5440 N   0  0  0  0  0  0  0  0  0  0  0  0
   16.9400   70.7383   -7.1790 C   0  0  0  0  0  0  0  0  0  0  0  0
   19.0436   69.5454   -6.9288 C   0  0  0  0  0  0  0  0  0  0  0  0
   19.3253   69.5905   -8.2326 C   0  0  0  0  0  0  0  0  0  0  0  0
   18.3792   70.2518   -9.1543 C   0  0  0  0  0  0  0  0  0  0  0  0
   16.6006   71.2254   -9.1319 H   0  0  0  0  0  0  0  0  0  0  0  0
   22.4595   73.0008   -2.1340 O   0  0  0  0  0  0  0  0  0  0  0  0
   22.4488   73.0154   -0.5177 P   0  0  2  0  0  0  0  0  0  0  0  0
   23.4337   71.7921   -0.1290 O   0  0  0  0  0  0  0  0  0  0  0  0
   21.0788   72.9243    0.0895 O   0  0  0  0  0  0  0  0  0  0  0  0
   23.2715   74.3445   -0.1157 O   0  0  0  0  0  0  0  0  0  0  0  0
   22.6927   76.5388    0.5673 O   0  0  0  0  0  0  0  0  0  0  0  0
   25.6311   77.4579   -2.1845 O   0  0  0  0  0  0  0  0  0  0  0  0
   26.1670   77.7699    0.6197 O   0  0  0  0  0  0  0  0  0  0  0  0
   23.7912   75.2853   -2.7080 O   0  0  0  0  0  0  0  0  0  0  0  0
   25.0002   76.6818   -1.1622 C   0  0  1  0  0  0  0  0  0  0  0  0
   24.8632   77.5547    0.0868 C   0  0  1  0  0  0  0  0  0  0  0  0
   23.6270   76.2292   -1.6551 C   0  0  2  0  0  0  0  0  0  0  0  0
   23.9617   76.8863    1.1336 C   0  0  1  0  0  0  0  0  0  0  0  0
   22.7929   75.6231   -0.5250 C   0  0  1  0  0  0  0  0  0  0  0  0
   26.5037   77.7480   -1.8781 H   0  0  0  0  0  0  0  0  0  0  0  0
   26.7263   78.1920   -0.0513 H   0  0  0  0  0  0  0  0  0  0  0  0
   24.3205   75.6811   -3.4172 H   0  0  0  0  0  0  0  0  0  0  0  0
   23.8169   77.0549    3.5126 O   0  0  0  0  0  0  0  0  0  0  0  0
   23.6837   77.8065    2.3202 C   0  0  0  0  0  0  0  0  0  0  0  0
   23.6431   77.6278    4.2763 H   0  0  0  0  0  0  0  0  0  0  0  0
 25 28  1  0
 25 24  1  0
 25 26  1  1
 25 27  2  0
  1  4  1  0
  1 24  1  0
  1  2  1  6
  1  3  2  0
  6 11  1  0
  6 12  1  0
 29 36  1  0
 29 37  1  0
  9  7  1  1
  7 13  1  0
 10  8  1  1
  8 14  1  0
 37 28  1  1
  4  5  1  0
 33 30  1  6
 30 38  1  0
 34 31  1  1
 31 39  1  0
 35 32  1  6
 32 40  1  0
 41 42  1  0
 41 43  1  0
 15 19  2  0
 16 22  2  0
 12 17  1  6
 17 19  1  0
 17 20  1  0
 18 19  1  0
 18 22  1  0
 18 23  1  0
  9 10  1  0
  9 11  1  0
 10 12  1  0
 11  5  1  6
 33 34  1  0
 33 35  1  0
 34 36  1  0
 35 37  1  0
 36 42  1  1
 20 21  2  0
 21 22  1  0
M  CHG  2   2  -1  26  -1
M  END
>  <COMPND>  (33) 
    8629 

>  <AUTHOR>  (33) 
    GENERATED BY OPEN BABEL 3.1.1

>  <MASTER>  (33) 
        0    0    0    0    0    0    0    0   58    0   58    0

>  <minimizedAffinity>  (33) 
-7.56971

>  <CNNscore>  (33) 
0.4121024907

>  <CNNaffinity>  (33) 
4.3489527702

>  <CNN_VS>  (33) 
1.7922142744

>  <CNNaffinity_variance>  (33) 
0.0444886163

$$$$
34
     RDKit          3D

 43 45  0  0  0  0  0  0  0  0999 V2000
   18.6951   68.9854   -4.1781 P   0  0  2  0  0  0  0  0  0  0  0  0
   19.9467   68.5071   -3.2715 O   0  0  0  0  0  0  0  0  0  0  0  0
   17.5011   68.0775   -4.1396 O   0  0  0  0  0  0  0  0  0  0  0  0
   19.3450   69.2300   -5.6395 O   0  0  0  0  0  0  0  0  0  0  0  0
   19.0552   70.4419   -6.3141 C   0  0  0  0  0  0  0  0  0  0  0  0
   16.8179   70.4646   -7.1903 O   0  0  0  0  0  0  0  0  0  0  0  0
   18.0797   70.2936   -9.9050 O   0  0  0  0  0  0  0  0  0  0  0  0
   17.4480   72.9392   -9.7087 O   0  0  0  0  0  0  0  0  0  0  0  0
   18.5301   70.9878   -8.7429 C   0  0  1  0  0  0  0  0  0  0  0  0
   17.6907   72.2272   -8.5125 C   0  0  2  0  0  0  0  0  0  0  0  0
   18.1846   70.1389   -7.5258 C   0  0  1  0  0  0  0  0  0  0  0  0
   16.4233   71.6423   -7.9128 C   0  0  2  0  0  0  0  0  0  0  0  0
   18.2896   70.8163  -10.6954 H   0  0  0  0  0  0  0  0  0  0  0  0
   18.2844   73.2915  -10.0509 H   0  0  0  0  0  0  0  0  0  0  0  0
   14.2426   73.3001   -8.6019 O   0  0  0  0  0  0  0  0  0  0  0  0
   14.0225   75.0851   -4.3585 O   0  0  0  0  0  0  0  0  0  0  0  0
   15.7764   72.5498   -7.0075 N   0  0  0  0  0  0  0  0  0  0  0  0
   14.1347   74.1874   -6.4884 N   0  0  0  0  0  0  0  0  0  0  0  0
   14.6903   73.3382   -7.4539 C   0  0  0  0  0  0  0  0  0  0  0  0
   16.2194   72.6510   -5.6933 C   0  0  0  0  0  0  0  0  0  0  0  0
   15.6796   73.4666   -4.7852 C   0  0  0  0  0  0  0  0  0  0  0  0
   14.5405   74.3246   -5.1703 C   0  0  0  0  0  0  0  0  0  0  0  0
   13.3770   74.7465   -6.7767 H   0  0  0  0  0  0  0  0  0  0  0  0
   18.4157   70.4870   -3.6488 O   0  0  0  0  0  0  0  0  0  0  0  0
   18.1689   71.0580   -2.1568 P   0  0  2  0  0  0  0  0  0  0  0  0
   18.4275   69.7661   -1.2177 O   0  0  0  0  0  0  0  0  0  0  0  0
   16.8302   71.7083   -1.9604 O   0  0  0  0  0  0  0  0  0  0  0  0
   19.4301   72.0252   -1.8758 O   0  0  0  0  0  0  0  0  0  0  0  0
   21.5936   71.0616   -1.7906 O   0  0  0  0  0  0  0  0  0  0  0  0
   22.3685   74.5993    0.1930 O   0  0  0  0  0  0  0  0  0  0  0  0
   23.3637   74.2220   -2.4744 O   0  0  0  0  0  0  0  0  0  0  0  0
   19.8606   73.2201    0.6266 O   0  0  0  0  0  0  0  0  0  0  0  0
   21.7385   73.7625   -0.7808 C   0  0  1  0  0  0  0  0  0  0  0  0
   22.8259   73.1693   -1.6788 C   0  0  1  0  0  0  0  0  0  0  0  0
   20.9694   72.6543   -0.0640 C   0  0  2  0  0  0  0  0  0  0  0  0
   22.2601   72.0585   -2.5739 C   0  0  1  0  0  0  0  0  0  0  0  0
   20.4927   71.5761   -1.0388 C   0  0  1  0  0  0  0  0  0  0  0  0
   22.8581   75.3054   -0.2556 H   0  0  0  0  0  0  0  0  0  0  0  0
   23.7172   74.9170   -1.8971 H   0  0  0  0  0  0  0  0  0  0  0  0
   20.1756   73.9009    1.2407 H   0  0  0  0  0  0  0  0  0  0  0  0
   23.6834   72.1367   -4.4915 O   0  0  0  0  0  0  0  0  0  0  0  0
   23.3563   71.3463   -3.3634 C   0  0  0  0  0  0  0  0  0  0  0  0
   24.3801   71.6959   -5.0033 H   0  0  0  0  0  0  0  0  0  0  0  0
 25 28  1  0
 25 24  1  0
 25 26  1  1
 25 27  2  0
  1  4  1  0
  1 24  1  0
  1  2  1  1
  1  3  2  0
  6 11  1  0
  6 12  1  0
 29 36  1  0
 29 37  1  0
  9  7  1  6
  7 13  1  0
 10  8  1  6
  8 14  1  0
 37 28  1  6
  4  5  1  0
 33 30  1  1
 30 38  1  0
 34 31  1  6
 31 39  1  0
 35 32  1  6
 32 40  1  0
 41 42  1  0
 41 43  1  0
 15 19  2  0
 16 22  2  0
 12 17  1  1
 17 19  1  0
 17 20  1  0
 18 19  1  0
 18 22  1  0
 18 23  1  0
  9 10  1  0
  9 11  1  0
 10 12  1  0
 11  5  1  1
 33 34  1  0
 33 35  1  0
 34 36  1  0
 35 37  1  0
 36 42  1  1
 20 21  2  0
 21 22  1  0
M  CHG  2   2  -1  26  -1
M  END
>  <COMPND>  (34) 
    8629 

>  <AUTHOR>  (34) 
    GENERATED BY OPEN BABEL 3.1.1

>  <MASTER>  (34) 
        0    0    0    0    0    0    0    0   58    0   58    0

>  <minimizedAffinity>  (34) 
-7.90099

>  <CNNscore>  (34) 
0.3725609183

>  <CNNaffinity>  (34) 
4.0982031822

>  <CNN_VS>  (34) 
1.5268303156

>  <CNNaffinity_variance>  (34) 
0.2673284709

$$$$
35
     RDKit          3D

 43 45  0  0  0  0  0  0  0  0999 V2000
   22.5085   71.2946   -2.1599 P   0  0  2  0  0  0  0  0  0  0  0  0
   23.8324   70.5725   -2.7457 O   0  0  0  0  0  0  0  0  0  0  0  0
   22.0570   70.7980   -0.8179 O   0  0  0  0  0  0  0  0  0  0  0  0
   21.4300   71.1596   -3.3584 O   0  0  0  0  0  0  0  0  0  0  0  0
   20.7205   69.9407   -3.4954 C   0  0  0  0  0  0  0  0  0  0  0  0
   18.6193   70.8673   -4.2024 O   0  0  0  0  0  0  0  0  0  0  0  0
   17.3651   69.1574   -2.0826 O   0  0  0  0  0  0  0  0  0  0  0  0
   16.8831   67.7329   -4.3575 O   0  0  0  0  0  0  0  0  0  0  0  0
   18.4813   68.8759   -2.9254 C   0  0  1  0  0  0  0  0  0  0  0  0
   18.0141   68.5798   -4.3352 C   0  0  2  0  0  0  0  0  0  0  0  0
   19.2642   70.1692   -3.1148 C   0  0  1  0  0  0  0  0  0  0  0  0
   17.7132   69.9711   -4.8662 C   0  0  2  0  0  0  0  0  0  0  0  0
   16.8500   68.3461   -1.9468 H   0  0  0  0  0  0  0  0  0  0  0  0
   17.1256   66.8603   -4.0104 H   0  0  0  0  0  0  0  0  0  0  0  0
   15.9363   71.2633   -6.6413 O   0  0  0  0  0  0  0  0  0  0  0  0
   18.5830   70.2923  -10.2874 O   0  0  0  0  0  0  0  0  0  0  0  0
   17.9134   70.0713   -6.2844 N   0  0  0  0  0  0  0  0  0  0  0  0
   17.2557   70.7789   -8.4553 N   0  0  0  0  0  0  0  0  0  0  0  0
   16.9601   70.7406   -7.0867 C   0  0  0  0  0  0  0  0  0  0  0  0
   19.0451   69.5099   -6.8658 C   0  0  0  0  0  0  0  0  0  0  0  0
   19.3116   69.5540   -8.1728 C   0  0  0  0  0  0  0  0  0  0  0  0
   18.3662   70.2348   -9.0809 C   0  0  0  0  0  0  0  0  0  0  0  0
   16.6055   71.2397   -9.0339 H   0  0  0  0  0  0  0  0  0  0  0  0
   22.9017   72.8620   -2.1998 O   0  0  0  0  0  0  0  0  0  0  0  0
   21.9892   74.1805   -2.4050 P   0  0  2  0  0  0  0  0  0  0  0  0
   22.7381   75.2943   -1.5016 O   0  0  0  0  0  0  0  0  0  0  0  0
   20.5392   73.9836   -2.0692 O   0  0  0  0  0  0  0  0  0  0  0  0
   22.2671   74.6367   -3.9280 O   0  0  0  0  0  0  0  0  0  0  0  0
   20.8075   74.6577   -5.7950 O   0  0  0  0  0  0  0  0  0  0  0  0
   24.3150   73.6201   -7.7113 O   0  0  0  0  0  0  0  0  0  0  0  0
   23.2338   76.2575   -8.0628 O   0  0  0  0  0  0  0  0  0  0  0  0
   23.7280   72.5413   -5.0900 O   0  0  0  0  0  0  0  0  0  0  0  0
   23.5127   74.2884   -6.7339 C   0  0  1  0  0  0  0  0  0  0  0  0
   22.5114   75.1838   -7.4664 C   0  0  1  0  0  0  0  0  0  0  0  0
   22.7835   73.2454   -5.8890 C   0  0  2  0  0  0  0  0  0  0  0  0
   21.4459   75.7260   -6.5042 C   0  0  1  0  0  0  0  0  0  0  0  0
   21.7120   73.8845   -5.0038 C   0  0  1  0  0  0  0  0  0  0  0  0
   24.7811   74.2767   -8.2508 H   0  0  0  0  0  0  0  0  0  0  0  0
   23.9036   75.9015   -8.6676 H   0  0  0  0  0  0  0  0  0  0  0  0
   24.4007   72.1411   -5.6620 H   0  0  0  0  0  0  0  0  0  0  0  0
   19.3808   75.5644   -7.6949 O   0  0  0  0  0  0  0  0  0  0  0  0
   20.3482   76.4921   -7.2392 C   0  0  0  0  0  0  0  0  0  0  0  0
   18.6757   76.0379   -8.1645 H   0  0  0  0  0  0  0  0  0  0  0  0
 25 28  1  0
 25 24  1  0
 25 26  1  1
 25 27  2  0
  1  4  1  0
  1 24  1  0
  1  2  1  6
  1  3  2  0
  6 11  1  0
  6 12  1  0
 29 36  1  0
 29 37  1  0
  9  7  1  1
  7 13  1  0
 10  8  1  1
  8 14  1  0
 37 28  1  1
  4  5  1  0
 33 30  1  6
 30 38  1  0
 34 31  1  1
 31 39  1  0
 35 32  1  1
 32 40  1  0
 41 42  1  0
 41 43  1  0
 15 19  2  0
 16 22  2  0
 12 17  1  6
 17 19  1  0
 17 20  1  0
 18 19  1  0
 18 22  1  0
 18 23  1  0
  9 10  1  0
  9 11  1  0
 10 12  1  0
 11  5  1  6
 33 34  1  0
 33 35  1  0
 34 36  1  0
 35 37  1  0
 36 42  1  6
 20 21  2  0
 21 22  1  0
M  CHG  2   2  -1  26  -1
M  END
>  <COMPND>  (35) 
    8629 

>  <AUTHOR>  (35) 
    GENERATED BY OPEN BABEL 3.1.1

>  <MASTER>  (35) 
        0    0    0    0    0    0    0    0   58    0   58    0

>  <minimizedAffinity>  (35) 
-7.85214

>  <CNNscore>  (35) 
0.3715408742

>  <CNNaffinity>  (35) 
4.1727881432

>  <CNN_VS>  (35) 
1.5503613949

>  <CNNaffinity_variance>  (35) 
0.6136149168

$$$$
36
     RDKit          3D

 43 45  0  0  0  0  0  0  0  0999 V2000
   20.9582   71.5777   -1.5040 P   0  0  2  0  0  0  0  0  0  0  0  0
   21.6494   70.2614   -0.8660 O   0  0  0  0  0  0  0  0  0  0  0  0
   19.7946   72.1216   -0.7284 O   0  0  0  0  0  0  0  0  0  0  0  0
   20.6452   71.1496   -3.0327 O   0  0  0  0  0  0  0  0  0  0  0  0
   20.0577   69.8828   -3.2733 C   0  0  0  0  0  0  0  0  0  0  0  0
   17.9889   70.6888   -4.1923 O   0  0  0  0  0  0  0  0  0  0  0  0
   16.6301   68.7897   -2.3114 O   0  0  0  0  0  0  0  0  0  0  0  0
   16.5324   67.4484   -4.6837 O   0  0  0  0  0  0  0  0  0  0  0  0
   17.8564   68.6319   -3.0230 C   0  0  1  0  0  0  0  0  0  0  0  0
   17.5835   68.3728   -4.4900 C   0  0  2  0  0  0  0  0  0  0  0  0
   18.5532   69.9862   -3.0634 C   0  0  1  0  0  0  0  0  0  0  0  0
   17.2400   69.7632   -4.9969 C   0  0  2  0  0  0  0  0  0  0  0  0
   16.1672   67.9376   -2.2721 H   0  0  0  0  0  0  0  0  0  0  0  0
   16.7994   66.5795   -4.3452 H   0  0  0  0  0  0  0  0  0  0  0  0
   15.8099   71.3853   -6.8138 O   0  0  0  0  0  0  0  0  0  0  0  0
   18.7048   70.3948  -10.2604 O   0  0  0  0  0  0  0  0  0  0  0  0
   17.5980   69.9476   -6.3750 N   0  0  0  0  0  0  0  0  0  0  0  0
   17.2526   70.8909   -8.5284 N   0  0  0  0  0  0  0  0  0  0  0  0
   16.8123   70.7827   -7.2031 C   0  0  0  0  0  0  0  0  0  0  0  0
   18.7172   69.3045   -6.8923 C   0  0  0  0  0  0  0  0  0  0  0  0
   19.1229   69.4171   -8.1588 C   0  0  0  0  0  0  0  0  0  0  0  0
   18.3574   70.2708   -9.0900 C   0  0  0  0  0  0  0  0  0  0  0  0
   16.7205   71.4672   -9.1239 H   0  0  0  0  0  0  0  0  0  0  0  0
   22.1999   72.6008   -1.6603 O   0  0  0  0  0  0  0  0  0  0  0  0
   22.2406   74.2138   -1.7573 P   0  0  2  0  0  0  0  0  0  0  0  0
   23.7878   74.5657   -1.4416 O   0  0  0  0  0  0  0  0  0  0  0  0
   21.2529   74.9090   -0.8656 O   0  0  0  0  0  0  0  0  0  0  0  0
   22.0626   74.5330   -3.3294 O   0  0  0  0  0  0  0  0  0  0  0  0
   22.1314   72.9818   -5.1198 O   0  0  0  0  0  0  0  0  0  0  0  0
   23.6696   76.2900   -7.0537 O   0  0  0  0  0  0  0  0  0  0  0  0
   21.0081   75.4007   -7.6645 O   0  0  0  0  0  0  0  0  0  0  0  0
   24.3912   75.7617   -4.3006 O   0  0  0  0  0  0  0  0  0  0  0  0
   22.8300   75.5957   -6.1272 C   0  0  1  0  0  0  0  0  0  0  0  0
   21.9429   74.6297   -6.9149 C   0  0  1  0  0  0  0  0  0  0  0  0
   23.7056   74.8336   -5.1343 C   0  0  2  0  0  0  0  0  0  0  0  0
   21.2077   73.6627   -5.9770 C   0  0  1  0  0  0  0  0  0  0  0  0
   22.8828   73.8642   -4.2839 C   0  0  1  0  0  0  0  0  0  0  0  0
   23.1198   76.7764   -7.6867 H   0  0  0  0  0  0  0  0  0  0  0  0
   21.4851   76.0074   -8.2523 H   0  0  0  0  0  0  0  0  0  0  0  0
   24.9085   76.3696   -4.8507 H   0  0  0  0  0  0  0  0  0  0  0  0
   19.3065   73.1912   -7.3451 O   0  0  0  0  0  0  0  0  0  0  0  0
   20.4408   72.5905   -6.7477 C   0  0  0  0  0  0  0  0  0  0  0  0
   18.8089   72.5205   -7.8394 H   0  0  0  0  0  0  0  0  0  0  0  0
 25 28  1  0
 25 24  1  0
 25 26  1  1
 25 27  2  0
  1  4  1  0
  1 24  1  0
  1  2  1  1
  1  3  2  0
  6 11  1  0
  6 12  1  0
 29 36  1  0
 29 37  1  0
  9  7  1  1
  7 13  1  0
 10  8  1  1
  8 14  1  0
 37 28  1  1
  4  5  1  0
 33 30  1  6
 30 38  1  0
 34 31  1  1
 31 39  1  0
 35 32  1  1
 32 40  1  0
 41 42  1  0
 41 43  1  0
 15 19  2  0
 16 22  2  0
 12 17  1  6
 17 19  1  0
 17 20  1  0
 18 19  1  0
 18 22  1  0
 18 23  1  0
  9 10  1  0
  9 11  1  0
 10 12  1  0
 11  5  1  6
 33 34  1  0
 33 35  1  0
 34 36  1  0
 35 37  1  0
 36 42  1  6
 20 21  2  0
 21 22  1  0
M  CHG  2   2  -1  26  -1
M  END
>  <COMPND>  (36) 
    8629 

>  <AUTHOR>  (36) 
    GENERATED BY OPEN BABEL 3.1.1

>  <MASTER>  (36) 
        0    0    0    0    0    0    0    0   58    0   58    0

>  <minimizedAffinity>  (36) 
-7.06703

>  <CNNscore>  (36) 
0.3625203371

>  <CNNaffinity>  (36) 
4.1084256172

>  <CNN_VS>  (36) 
1.4893878698

>  <CNNaffinity_variance>  (36) 
0.4369195402

$$$$
37
     RDKit          3D

 43 45  0  0  0  0  0  0  0  0999 V2000
   20.3435   70.8496   -1.6224 P   0  0  2  0  0  0  0  0  0  0  0  0
   21.6708   70.3421   -0.8491 O   0  0  0  0  0  0  0  0  0  0  0  0
   19.6927   72.0663   -1.0329 O   0  0  0  0  0  0  0  0  0  0  0  0
   19.4145   69.5276   -1.7080 O   0  0  0  0  0  0  0  0  0  0  0  0
   19.3703   68.8101   -2.9291 C   0  0  0  0  0  0  0  0  0  0  0  0
   17.0536   68.9906   -2.3174 O   0  0  0  0  0  0  0  0  0  0  0  0
   16.4840   67.2548   -4.6951 O   0  0  0  0  0  0  0  0  0  0  0  0
   15.8727   69.7469   -5.6184 O   0  0  0  0  0  0  0  0  0  0  0  0
   17.4729   68.2708   -4.5359 C   0  0  1  0  0  0  0  0  0  0  0  0
   16.8311   69.6416   -4.5853 C   0  0  2  0  0  0  0  0  0  0  0  0
   17.9819   68.2094   -3.1012 C   0  0  1  0  0  0  0  0  0  0  0  0
   16.2134   69.7504   -3.2015 C   0  0  2  0  0  0  0  0  0  0  0  0
   16.1442   67.2742   -5.6040 H   0  0  0  0  0  0  0  0  0  0  0  0
   16.3146   69.6717   -6.4785 H   0  0  0  0  0  0  0  0  0  0  0  0
   14.4404   70.6709   -1.2048 O   0  0  0  0  0  0  0  0  0  0  0  0
   16.0621   74.9754   -1.4911 O   0  0  0  0  0  0  0  0  0  0  0  0
   16.1511   71.1067   -2.7347 N   0  0  0  0  0  0  0  0  0  0  0  0
   15.2494   72.8134   -1.3488 N   0  0  0  0  0  0  0  0  0  0  0  0
   15.2239   71.4654   -1.7286 C   0  0  0  0  0  0  0  0  0  0  0  0
   17.0034   72.0647   -3.2729 C   0  0  0  0  0  0  0  0  0  0  0  0
   17.0143   73.3463   -2.9007 C   0  0  0  0  0  0  0  0  0  0  0  0
   16.0765   73.8036   -1.8550 C   0  0  0  0  0  0  0  0  0  0  0  0
   14.6119   73.0865   -0.6497 H   0  0  0  0  0  0  0  0  0  0  0  0
   20.8569   71.0319   -3.1443 O   0  0  0  0  0  0  0  0  0  0  0  0
   20.7877   72.3010   -4.1431 P   0  0  2  0  0  0  0  0  0  0  0  0
   22.2541   72.3156   -4.8265 O   0  0  0  0  0  0  0  0  0  0  0  0
   20.4028   73.5894   -3.4754 O   0  0  0  0  0  0  0  0  0  0  0  0
   19.7917   71.8367   -5.3252 O   0  0  0  0  0  0  0  0  0  0  0  0
   19.9768   71.3422   -7.6356 O   0  0  0  0  0  0  0  0  0  0  0  0
   16.6572   73.7954   -7.7499 O   0  0  0  0  0  0  0  0  0  0  0  0
   16.3472   70.9700   -8.1611 O   0  0  0  0  0  0  0  0  0  0  0  0
   18.8397   74.4022   -5.9476 O   0  0  0  0  0  0  0  0  0  0  0  0
   17.5300   72.8093   -7.1920 C   0  0  1  0  0  0  0  0  0  0  0  0
   17.6088   71.6323   -8.1664 C   0  0  1  0  0  0  0  0  0  0  0  0
   18.9113   73.4267   -6.9819 C   0  0  2  0  0  0  0  0  0  0  0  0
   18.7256   70.6578   -7.7688 C   0  0  1  0  0  0  0  0  0  0  0  0
   19.9580   72.3654   -6.6383 C   0  0  1  0  0  0  0  0  0  0  0  0
   15.7783   73.4099   -7.8853 H   0  0  0  0  0  0  0  0  0  0  0  0
   15.6507   71.5965   -8.4133 H   0  0  0  0  0  0  0  0  0  0  0  0
   18.1739   75.0684   -6.1772 H   0  0  0  0  0  0  0  0  0  0  0  0
   20.0084   68.7449   -8.4045 O   0  0  0  0  0  0  0  0  0  0  0  0
   18.9260   69.5611   -8.8125 C   0  0  0  0  0  0  0  0  0  0  0  0
   20.1474   68.0421   -9.0591 H   0  0  0  0  0  0  0  0  0  0  0  0
 25 28  1  0
 25 24  1  0
 25 26  1  6
 25 27  2  0
  1  4  1  0
  1 24  1  0
  1  2  1  1
  1  3  2  0
  6 11  1  0
  6 12  1  0
 29 36  1  0
 29 37  1  0
  9  7  1  1
  7 13  1  0
 10  8  1  6
  8 14  1  0
 37 28  1  1
  4  5  1  0
 33 30  1  6
 30 38  1  0
 34 31  1  1
 31 39  1  0
 35 32  1  1
 32 40  1  0
 41 42  1  0
 41 43  1  0
 15 19  2  0
 16 22  2  0
 12 17  1  1
 17 19  1  0
 17 20  1  0
 18 19  1  0
 18 22  1  0
 18 23  1  0
  9 10  1  0
  9 11  1  0
 10 12  1  0
 11  5  1  6
 33 34  1  0
 33 35  1  0
 34 36  1  0
 35 37  1  0
 36 42  1  6
 20 21  2  0
 21 22  1  0
M  CHG  2   2  -1  26  -1
M  END
>  <COMPND>  (37) 
    8629 

>  <AUTHOR>  (37) 
    GENERATED BY OPEN BABEL 3.1.1

>  <MASTER>  (37) 
        0    0    0    0    0    0    0    0   58    0   58    0

>  <minimizedAffinity>  (37) 
-6.90216

>  <CNNscore>  (37) 
0.3537372947

>  <CNNaffinity>  (37) 
4.0504007339

>  <CNN_VS>  (37) 
1.4327777624

>  <CNNaffinity_variance>  (37) 
0.5411569476

$$$$
38
     RDKit          3D

 43 45  0  0  0  0  0  0  0  0999 V2000
   22.1615   73.0928   -6.3123 P   0  0  2  0  0  0  0  0  0  0  0  0
   21.3361   74.4841   -6.2898 O   0  0  0  0  0  0  0  0  0  0  0  0
   23.6063   73.2192   -6.6970 O   0  0  0  0  0  0  0  0  0  0  0  0
   21.2665   72.1253   -7.2507 O   0  0  0  0  0  0  0  0  0  0  0  0
   19.8808   72.0115   -6.9775 C   0  0  0  0  0  0  0  0  0  0  0  0
   18.8867   69.8269   -7.0926 O   0  0  0  0  0  0  0  0  0  0  0  0
   17.8489   70.6460   -9.7838 O   0  0  0  0  0  0  0  0  0  0  0  0
   15.6636   70.9605   -8.1831 O   0  0  0  0  0  0  0  0  0  0  0  0
   18.0119   71.4298   -8.6029 C   0  0  1  0  0  0  0  0  0  0  0  0
   16.9403   71.0840   -7.5902 C   0  0  2  0  0  0  0  0  0  0  0  0
   19.2786   70.9595   -7.8988 C   0  0  1  0  0  0  0  0  0  0  0  0
   17.4525   69.7698   -7.0257 C   0  0  2  0  0  0  0  0  0  0  0  0
   17.0463   70.9284  -10.2508 H   0  0  0  0  0  0  0  0  0  0  0  0
   15.3818   71.8225   -8.5269 H   0  0  0  0  0  0  0  0  0  0  0  0
   16.4265   71.7965   -5.3471 O   0  0  0  0  0  0  0  0  0  0  0  0
   15.9694   68.8845   -1.8041 O   0  0  0  0  0  0  0  0  0  0  0  0
   17.0569   69.5690   -5.6602 N   0  0  0  0  0  0  0  0  0  0  0  0
   16.1996   70.3449   -3.5843 N   0  0  0  0  0  0  0  0  0  0  0  0
   16.5550   70.6535   -4.9036 C   0  0  0  0  0  0  0  0  0  0  0  0
   17.1681   68.3079   -5.0849 C   0  0  0  0  0  0  0  0  0  0  0  0
   16.8260   68.0304   -3.8250 C   0  0  0  0  0  0  0  0  0  0  0  0
   16.2927   69.1078   -2.9666 C   0  0  0  0  0  0  0  0  0  0  0  0
   15.8478   71.0849   -3.0381 H   0  0  0  0  0  0  0  0  0  0  0  0
   21.9095   72.4968   -4.8310 O   0  0  0  0  0  0  0  0  0  0  0  0
   22.8688   72.4430   -3.5310 P   0  0  2  0  0  0  0  0  0  0  0  0
   23.4616   73.9459   -3.4449 O   0  0  0  0  0  0  0  0  0  0  0  0
   23.9144   71.3668   -3.5819 O   0  0  0  0  0  0  0  0  0  0  0  0
   21.8553   72.3322   -2.2798 O   0  0  0  0  0  0  0  0  0  0  0  0
   20.3438   74.1356   -2.5617 O   0  0  0  0  0  0  0  0  0  0  0  0
   18.7797   72.4975    0.8909 O   0  0  0  0  0  0  0  0  0  0  0  0
   17.3650   72.1937   -1.5899 O   0  0  0  0  0  0  0  0  0  0  0  0
   21.6474   72.5897    0.5069 O   0  0  0  0  0  0  0  0  0  0  0  0
   19.4150   72.4750   -0.3902 C   0  0  1  0  0  0  0  0  0  0  0  0
   18.4570   73.0915   -1.4114 C   0  0  1  0  0  0  0  0  0  0  0  0
   20.7128   73.2774   -0.3179 C   0  0  2  0  0  0  0  0  0  0  0  0
   19.1632   73.3467   -2.7498 C   0  0  1  0  0  0  0  0  0  0  0  0
   21.3071   73.5165   -1.7070 C   0  0  1  0  0  0  0  0  0  0  0  0
   17.9552   71.9893    0.8520 H   0  0  0  0  0  0  0  0  0  0  0  0
   16.9280   72.0406   -0.7373 H   0  0  0  0  0  0  0  0  0  0  0  0
   21.2594   72.4446    1.3834 H   0  0  0  0  0  0  0  0  0  0  0  0
   17.1931   74.6729   -3.0121 O   0  0  0  0  0  0  0  0  0  0  0  0
   18.2719   74.1045   -3.7314 C   0  0  0  0  0  0  0  0  0  0  0  0
   16.6175   75.1587   -3.6240 H   0  0  0  0  0  0  0  0  0  0  0  0
 25 28  1  0
 25 24  1  0
 25 26  1  1
 25 27  2  0
  1  4  1  0
  1 24  1  0
  1  2  1  1
  1  3  2  0
  6 11  1  0
  6 12  1  0
 29 36  1  0
 29 37  1  0
  9  7  1  6
  7 13  1  0
 10  8  1  6
  8 14  1  0
 37 28  1  6
  4  5  1  0
 33 30  1  1
 30 38  1  0
 34 31  1  6
 31 39  1  0
 35 32  1  1
 32 40  1  0
 41 42  1  0
 41 43  1  0
 15 19  2  0
 16 22  2  0
 12 17  1  1
 17 19  1  0
 17 20  1  0
 18 19  1  0
 18 22  1  0
 18 23  1  0
  9 10  1  0
  9 11  1  0
 10 12  1  0
 11  5  1  1
 33 34  1  0
 33 35  1  0
 34 36  1  0
 35 37  1  0
 36 42  1  6
 20 21  2  0
 21 22  1  0
M  CHG  2   2  -1  26  -1
M  END
>  <COMPND>  (38) 
    8629 

>  <AUTHOR>  (38) 
    GENERATED BY OPEN BABEL 3.1.1

>  <MASTER>  (38) 
        0    0    0    0    0    0    0    0   58    0   58    0

>  <minimizedAffinity>  (38) 
-7.04959

>  <CNNscore>  (38) 
0.3438135684

>  <CNNaffinity>  (38) 
4.0580043793

>  <CNN_VS>  (38) 
1.3951969147

>  <CNNaffinity_variance>  (38) 
0.3705882430

$$$$
39
     RDKit          3D

 43 45  0  0  0  0  0  0  0  0999 V2000
   20.9801   74.7311   -6.4865 P   0  0  2  0  0  0  0  0  0  0  0  0
   19.7420   75.6904   -6.0812 O   0  0  0  0  0  0  0  0  0  0  0  0
   21.8461   75.2491   -7.5969 O   0  0  0  0  0  0  0  0  0  0  0  0
   20.2873   73.2926   -6.7483 O   0  0  0  0  0  0  0  0  0  0  0  0
   18.8833   73.2419   -6.9329 C   0  0  0  0  0  0  0  0  0  0  0  0
   19.1431   70.8538   -6.9879 O   0  0  0  0  0  0  0  0  0  0  0  0
   16.7591   70.8239   -8.8064 O   0  0  0  0  0  0  0  0  0  0  0  0
   15.6840   70.1067   -6.4050 O   0  0  0  0  0  0  0  0  0  0  0  0
   17.0320   71.6696   -7.6903 C   0  0  1  0  0  0  0  0  0  0  0  0
   16.8491   70.9063   -6.3951 C   0  0  2  0  0  0  0  0  0  0  0  0
   18.5270   71.9630   -7.6782 C   0  0  1  0  0  0  0  0  0  0  0  0
   18.1236   70.0817   -6.3327 C   0  0  2  0  0  0  0  0  0  0  0  0
   15.8100   70.6230   -8.8352 H   0  0  0  0  0  0  0  0  0  0  0  0
   14.9006   70.6771   -6.4453 H   0  0  0  0  0  0  0  0  0  0  0  0
   17.1374   67.9564   -4.7552 O   0  0  0  0  0  0  0  0  0  0  0  0
   19.7791   69.1483   -1.1715 O   0  0  0  0  0  0  0  0  0  0  0  0
   18.5366   69.8131   -4.9841 N   0  0  0  0  0  0  0  0  0  0  0  0
   18.4537   68.5515   -2.9721 N   0  0  0  0  0  0  0  0  0  0  0  0
   17.9791   68.7210   -4.2791 C   0  0  0  0  0  0  0  0  0  0  0  0
   19.4845   70.6276   -4.3743 C   0  0  0  0  0  0  0  0  0  0  0  0
   19.9256   70.4533   -3.1268 C   0  0  0  0  0  0  0  0  0  0  0  0
   19.3937   69.3350   -2.3215 C   0  0  0  0  0  0  0  0  0  0  0  0
   18.0792   67.7973   -2.4616 H   0  0  0  0  0  0  0  0  0  0  0  0
   21.7473   74.5143   -5.0803 O   0  0  0  0  0  0  0  0  0  0  0  0
   23.2770   74.1031   -4.7581 P   0  0  2  0  0  0  0  0  0  0  0  0
   24.1035   75.4513   -5.0998 O   0  0  0  0  0  0  0  0  0  0  0  0
   23.7534   72.8822   -5.4906 O   0  0  0  0  0  0  0  0  0  0  0  0
   23.3379   73.9842   -3.1496 O   0  0  0  0  0  0  0  0  0  0  0  0
   21.3804   74.2011   -1.8314 O   0  0  0  0  0  0  0  0  0  0  0  0
   24.2054   75.1809    1.0164 O   0  0  0  0  0  0  0  0  0  0  0  0
   22.8577   72.6494    1.1685 O   0  0  0  0  0  0  0  0  0  0  0  0
   24.5386   76.0767   -1.7160 O   0  0  0  0  0  0  0  0  0  0  0  0
   23.6891   74.4844   -0.1210 C   0  0  1  0  0  0  0  0  0  0  0  0
   22.4423   73.7122    0.3150 C   0  0  1  0  0  0  0  0  0  0  0  0
   23.3408   75.4968   -1.2105 C   0  0  2  0  0  0  0  0  0  0  0  0
   21.6820   73.1578   -0.8973 C   0  0  1  0  0  0  0  0  0  0  0  0
   22.5434   74.8527   -2.3460 C   0  0  1  0  0  0  0  0  0  0  0  0
   24.4290   74.5438    1.7118 H   0  0  0  0  0  0  0  0  0  0  0  0
   23.3369   73.0129    1.9296 H   0  0  0  0  0  0  0  0  0  0  0  0
   25.0342   76.4813   -0.9877 H   0  0  0  0  0  0  0  0  0  0  0  0
   19.8867   73.1556    0.6793 O   0  0  0  0  0  0  0  0  0  0  0  0
   20.3535   72.5201   -0.4965 C   0  0  0  0  0  0  0  0  0  0  0  0
   19.0416   72.7601    0.9460 H   0  0  0  0  0  0  0  0  0  0  0  0
 25 28  1  0
 25 24  1  0
 25 26  1  6
 25 27  2  0
  1  4  1  0
  1 24  1  0
  1  2  1  1
  1  3  2  0
  6 11  1  0
  6 12  1  0
 29 36  1  0
 29 37  1  0
  9  7  1  6
  7 13  1  0
 10  8  1  6
  8 14  1  0
 37 28  1  1
  4  5  1  0
 33 30  1  1
 30 38  1  0
 34 31  1  1
 31 39  1  0
 35 32  1  6
 32 40  1  0
 41 42  1  0
 41 43  1  0
 15 19  2  0
 16 22  2  0
 12 17  1  1
 17 19  1  0
 17 20  1  0
 18 19  1  0
 18 22  1  0
 18 23  1  0
  9 10  1  0
  9 11  1  0
 10 12  1  0
 11  5  1  1
 33 34  1  0
 33 35  1  0
 34 36  1  0
 35 37  1  0
 36 42  1  1
 20 21  2  0
 21 22  1  0
M  CHG  2   2  -1  26  -1
M  END
>  <COMPND>  (39) 
    8629 

>  <AUTHOR>  (39) 
    GENERATED BY OPEN BABEL 3.1.1

>  <MASTER>  (39) 
        0    0    0    0    0    0    0    0   58    0   58    0

>  <minimizedAffinity>  (39) 
-7.15162

>  <CNNscore>  (39) 
0.3433633447

>  <CNNaffinity>  (39) 
3.9057521820

>  <CNN_VS>  (39) 
1.3410921097

>  <CNNaffinity_variance>  (39) 
0.5283030272

$$$$
40
     RDKit          3D

 43 45  0  0  0  0  0  0  0  0999 V2000
   23.1034   71.7199   -3.6095 P   0  0  2  0  0  0  0  0  0  0  0  0
   23.6461   72.4779   -4.9318 O   0  0  0  0  0  0  0  0  0  0  0  0
   23.8788   70.4967   -3.2170 O   0  0  0  0  0  0  0  0  0  0  0  0
   21.5311   71.4879   -3.9125 O   0  0  0  0  0  0  0  0  0  0  0  0
   20.9641   70.2243   -3.6133 C   0  0  0  0  0  0  0  0  0  0  0  0
   18.8111   71.0677   -4.2665 O   0  0  0  0  0  0  0  0  0  0  0  0
   17.6878   69.3799   -2.0573 O   0  0  0  0  0  0  0  0  0  0  0  0
   17.1683   67.8795   -4.2744 O   0  0  0  0  0  0  0  0  0  0  0  0
   18.7809   69.1089   -2.9330 C   0  0  1  0  0  0  0  0  0  0  0  0
   18.2726   68.7602   -4.3163 C   0  0  2  0  0  0  0  0  0  0  0  0
   19.5161   70.4194   -3.1853 C   0  0  1  0  0  0  0  0  0  0  0  0
   17.9098   70.1267   -4.8724 C   0  0  2  0  0  0  0  0  0  0  0  0
   17.2032   68.5576   -1.8813 H   0  0  0  0  0  0  0  0  0  0  0  0
   17.4501   67.0245   -3.9135 H   0  0  0  0  0  0  0  0  0  0  0  0
   15.9692   71.1925   -6.6264 O   0  0  0  0  0  0  0  0  0  0  0  0
   18.5763   70.3306  -10.3280 O   0  0  0  0  0  0  0  0  0  0  0  0
   18.0555   70.1937   -6.2992 N   0  0  0  0  0  0  0  0  0  0  0  0
   17.2690   70.7626   -8.4681 N   0  0  0  0  0  0  0  0  0  0  0  0
   17.0213   70.7470   -7.0895 C   0  0  0  0  0  0  0  0  0  0  0  0
   19.2141   69.7144   -6.9007 C   0  0  0  0  0  0  0  0  0  0  0  0
   19.4344   69.7354   -8.2168 C   0  0  0  0  0  0  0  0  0  0  0  0
   18.4036   70.2971   -9.1136 C   0  0  0  0  0  0  0  0  0  0  0  0
   16.5623   71.1431   -9.0386 H   0  0  0  0  0  0  0  0  0  0  0  0
   23.0899   72.8933   -2.4977 O   0  0  0  0  0  0  0  0  0  0  0  0
   22.8544   72.8386   -0.8995 P   0  0  2  0  0  0  0  0  0  0  0  0
   23.6230   74.1585   -0.3658 O   0  0  0  0  0  0  0  0  0  0  0  0
   23.3015   71.5585   -0.2550 O   0  0  0  0  0  0  0  0  0  0  0  0
   21.2874   73.1732   -0.7058 O   0  0  0  0  0  0  0  0  0  0  0  0
   20.7789   74.8816   -2.2678 O   0  0  0  0  0  0  0  0  0  0  0  0
   17.0797   74.5076   -0.4714 O   0  0  0  0  0  0  0  0  0  0  0  0
   17.4657   73.5219   -3.1411 O   0  0  0  0  0  0  0  0  0  0  0  0
   19.4866   74.3063    1.1241 O   0  0  0  0  0  0  0  0  0  0  0  0
   18.3358   74.0460   -0.9757 C   0  0  1  0  0  0  0  0  0  0  0  0
   18.3987   74.3647   -2.4708 C   0  0  1  0  0  0  0  0  0  0  0  0
   19.4643   74.7529   -0.2274 C   0  0  2  0  0  0  0  0  0  0  0  0
   19.8125   74.1440   -3.0253 C   0  0  1  0  0  0  0  0  0  0  0  0
   20.8215   74.5076   -0.8893 C   0  0  1  0  0  0  0  0  0  0  0  0
   16.3588   74.0622   -0.9421 H   0  0  0  0  0  0  0  0  0  0  0  0
   16.5771   73.6707   -2.7813 H   0  0  0  0  0  0  0  0  0  0  0  0
   18.6220   74.4674    1.5320 H   0  0  0  0  0  0  0  0  0  0  0  0
   19.7151   73.4919   -5.3219 O   0  0  0  0  0  0  0  0  0  0  0  0
   19.9364   74.6052   -4.4759 C   0  0  0  0  0  0  0  0  0  0  0  0
   19.7906   73.7705   -6.2484 H   0  0  0  0  0  0  0  0  0  0  0  0
 25 28  1  0
 25 24  1  0
 25 26  1  1
 25 27  2  0
  1  4  1  0
  1 24  1  0
  1  2  1  6
  1  3  2  0
  6 11  1  0
  6 12  1  0
 29 36  1  0
 29 37  1  0
  9  7  1  1
  7 13  1  0
 10  8  1  1
  8 14  1  0
 37 28  1  6
  4  5  1  0
 33 30  1  1
 30 38  1  0
 34 31  1  6
 31 39  1  0
 35 32  1  1
 32 40  1  0
 41 42  1  0
 41 43  1  0
 15 19  2  0
 16 22  2  0
 12 17  1  6
 17 19  1  0
 17 20  1  0
 18 19  1  0
 18 22  1  0
 18 23  1  0
  9 10  1  0
  9 11  1  0
 10 12  1  0
 11  5  1  6
 33 34  1  0
 33 35  1  0
 34 36  1  0
 35 37  1  0
 36 42  1  6
 20 21  2  0
 21 22  1  0
M  CHG  2   2  -1  26  -1
M  END
>  <COMPND>  (40) 
    8629 

>  <AUTHOR>  (40) 
    GENERATED BY OPEN BABEL 3.1.1

>  <MASTER>  (40) 
        0    0    0    0    0    0    0    0   58    0   58    0

>  <minimizedAffinity>  (40) 
-7.48950

>  <CNNscore>  (40) 
0.2636504769

>  <CNNaffinity>  (40) 
4.0468778610

>  <CNN_VS>  (40) 
1.0669612885

>  <CNNaffinity_variance>  (40) 
0.2772671580

$$$$
41
     RDKit          3D

 43 45  0  0  0  0  0  0  0  0999 V2000
   20.0517   73.1932   -5.7080 P   0  0  2  0  0  0  0  0  0  0  0  0
   19.2228   72.8875   -4.3528 O   0  0  0  0  0  0  0  0  0  0  0  0
   19.4014   74.1713   -6.6417 O   0  0  0  0  0  0  0  0  0  0  0  0
   20.3472   71.7256   -6.3220 O   0  0  0  0  0  0  0  0  0  0  0  0
   20.6518   71.6188   -7.7017 C   0  0  0  0  0  0  0  0  0  0  0  0
   19.6553   69.4640   -7.3306 O   0  0  0  0  0  0  0  0  0  0  0  0
   17.8853   70.0877   -9.6691 O   0  0  0  0  0  0  0  0  0  0  0  0
   16.2606   70.6019   -7.5402 O   0  0  0  0  0  0  0  0  0  0  0  0
   18.3884   70.9618   -8.6601 C   0  0  1  0  0  0  0  0  0  0  0  0
   17.6551   70.7349   -7.3546 C   0  0  2  0  0  0  0  0  0  0  0  0
   19.8023   70.5128   -8.3128 C   0  0  1  0  0  0  0  0  0  0  0  0
   18.3019   69.4571   -6.8477 C   0  0  2  0  0  0  0  0  0  0  0  0
   16.9832   70.3549   -9.9077 H   0  0  0  0  0  0  0  0  0  0  0  0
   15.8958   71.4406   -7.8631 H   0  0  0  0  0  0  0  0  0  0  0  0
   15.9956   69.2154   -5.2351 O   0  0  0  0  0  0  0  0  0  0  0  0
   18.4867   69.1836   -1.3577 O   0  0  0  0  0  0  0  0  0  0  0  0
   18.3187   69.3831   -5.4140 N   0  0  0  0  0  0  0  0  0  0  0  0
   17.2379   69.1996   -3.3058 N   0  0  0  0  0  0  0  0  0  0  0  0
   17.1044   69.2639   -4.6986 C   0  0  0  0  0  0  0  0  0  0  0  0
   19.5298   69.4286   -4.7319 C   0  0  0  0  0  0  0  0  0  0  0  0
   19.6399   69.3674   -3.4032 C   0  0  0  0  0  0  0  0  0  0  0  0
   18.4187   69.2422   -2.5815 C   0  0  0  0  0  0  0  0  0  0  0  0
   16.4052   69.1167   -2.7866 H   0  0  0  0  0  0  0  0  0  0  0  0
   21.4987   73.6529   -5.1532 O   0  0  0  0  0  0  0  0  0  0  0  0
   22.6935   72.8032   -4.4724 P   0  0  2  0  0  0  0  0  0  0  0  0
   23.8657   72.8531   -5.5864 O   0  0  0  0  0  0  0  0  0  0  0  0
   22.2997   71.4176   -4.0495 O   0  0  0  0  0  0  0  0  0  0  0  0
   23.2302   73.7412   -3.2736 O   0  0  0  0  0  0  0  0  0  0  0  0
   21.2476   73.7253   -1.9753 O   0  0  0  0  0  0  0  0  0  0  0  0
   23.8633   75.2493    0.8330 O   0  0  0  0  0  0  0  0  0  0  0  0
   22.9059   72.5550    1.1019 O   0  0  0  0  0  0  0  0  0  0  0  0
   24.0898   76.0547   -1.9381 O   0  0  0  0  0  0  0  0  0  0  0  0
   23.4691   74.4306   -0.2714 C   0  0  1  0  0  0  0  0  0  0  0  0
   22.3465   73.5023    0.1964 C   0  0  1  0  0  0  0  0  0  0  0  0
   22.9862   75.3270   -1.4100 C   0  0  2  0  0  0  0  0  0  0  0  0
   21.6908   72.7841   -0.9907 C   0  0  1  0  0  0  0  0  0  0  0  0
   22.3063   74.5182   -2.5162 C   0  0  1  0  0  0  0  0  0  0  0  0
   24.1714   74.6862    1.5593 H   0  0  0  0  0  0  0  0  0  0  0  0
   23.3171   73.0215    1.8466 H   0  0  0  0  0  0  0  0  0  0  0  0
   24.5115   76.5628   -1.2282 H   0  0  0  0  0  0  0  0  0  0  0  0
   19.3983   72.2827   -1.4401 O   0  0  0  0  0  0  0  0  0  0  0  0
   20.4677   71.9749   -0.5649 C   0  0  0  0  0  0  0  0  0  0  0  0
   18.6130   71.7746   -1.1813 H   0  0  0  0  0  0  0  0  0  0  0  0
 25 28  1  0
 25 24  1  0
 25 26  1  6
 25 27  2  0
  1  4  1  0
  1 24  1  0
  1  2  1  1
  1  3  2  0
  6 11  1  0
  6 12  1  0
 29 36  1  0
 29 37  1  0
  9  7  1  6
  7 13  1  0
 10  8  1  6
  8 14  1  0
 37 28  1  1
  4  5  1  0
 33 30  1  1
 30 38  1  0
 34 31  1  1
 31 39  1  0
 35 32  1  6
 32 40  1  0
 41 42  1  0
 41 43  1  0
 15 19  2  0
 16 22  2  0
 12 17  1  1
 17 19  1  0
 17 20  1  0
 18 19  1  0
 18 22  1  0
 18 23  1  0
  9 10  1  0
  9 11  1  0
 10 12  1  0
 11  5  1  1
 33 34  1  0
 33 35  1  0
 34 36  1  0
 35 37  1  0
 36 42  1  1
 20 21  2  0
 21 22  1  0
M  CHG  2   2  -1  26  -1
M  END
>  <COMPND>  (41) 
    8629 

>  <AUTHOR>  (41) 
    GENERATED BY OPEN BABEL 3.1.1

>  <MASTER>  (41) 
        0    0    0    0    0    0    0    0   58    0   58    0

>  <minimizedAffinity>  (41) 
-7.57488

>  <CNNscore>  (41) 
0.7070485950

>  <CNNaffinity>  (41) 
4.5186500549

>  <CNN_VS>  (41) 
3.1949052811

>  <CNNaffinity_variance>  (41) 
0.2581492662

$$$$
42
     RDKit          3D

 43 45  0  0  0  0  0  0  0  0999 V2000
   20.5213   70.5357   -1.6599 P   0  0  2  0  0  0  0  0  0  0  0  0
   20.1572   69.3517   -0.6193 O   0  0  0  0  0  0  0  0  0  0  0  0
   19.7102   71.7883   -1.5038 O   0  0  0  0  0  0  0  0  0  0  0  0
   20.4363   69.8195   -3.1083 O   0  0  0  0  0  0  0  0  0  0  0  0
   19.5428   68.7323   -3.2735 C   0  0  0  0  0  0  0  0  0  0  0  0
   17.8349   70.2014   -4.1095 O   0  0  0  0  0  0  0  0  0  0  0  0
   15.8973   68.5380   -2.5380 O   0  0  0  0  0  0  0  0  0  0  0  0
   15.5673   67.5962   -5.0758 O   0  0  0  0  0  0  0  0  0  0  0  0
   17.0703   68.1330   -3.2416 C   0  0  1  0  0  0  0  0  0  0  0  0
   16.8207   68.1529   -4.7353 C   0  0  2  0  0  0  0  0  0  0  0  0
   18.1166   69.2287   -3.0795 C   0  0  1  0  0  0  0  0  0  0  0  0
   16.9060   69.6369   -5.0493 C   0  0  2  0  0  0  0  0  0  0  0  0
   15.2147   67.8538   -2.6268 H   0  0  0  0  0  0  0  0  0  0  0  0
   15.5629   66.6512   -4.8571 H   0  0  0  0  0  0  0  0  0  0  0  0
   15.5433   71.2136   -6.9558 O   0  0  0  0  0  0  0  0  0  0  0  0
   18.8159   70.5321  -10.1287 O   0  0  0  0  0  0  0  0  0  0  0  0
   17.3793   69.8885   -6.3812 N   0  0  0  0  0  0  0  0  0  0  0  0
   17.1740   70.8732   -8.5340 N   0  0  0  0  0  0  0  0  0  0  0  0
   16.6185   70.6935   -7.2608 C   0  0  0  0  0  0  0  0  0  0  0  0
   18.5856   69.3400   -6.8032 C   0  0  0  0  0  0  0  0  0  0  0  0
   19.1008   69.5199   -8.0211 C   0  0  0  0  0  0  0  0  0  0  0  0
   18.3685   70.3480   -9.0009 C   0  0  0  0  0  0  0  0  0  0  0  0
   16.6613   71.4301   -9.1640 H   0  0  0  0  0  0  0  0  0  0  0  0
   22.1113   70.7326   -1.4447 O   0  0  0  0  0  0  0  0  0  0  0  0
   23.1813   71.6596   -2.2248 P   0  0  2  0  0  0  0  0  0  0  0  0
   24.4332   70.6625   -2.4615 O   0  0  0  0  0  0  0  0  0  0  0  0
   23.5301   72.9324   -1.5090 O   0  0  0  0  0  0  0  0  0  0  0  0
   22.5451   71.8707   -3.6931 O   0  0  0  0  0  0  0  0  0  0  0  0
   23.0314   74.0327   -4.5335 O   0  0  0  0  0  0  0  0  0  0  0  0
   20.3421   72.7952   -7.4122 O   0  0  0  0  0  0  0  0  0  0  0  0
   23.1337   72.9736   -8.0629 O   0  0  0  0  0  0  0  0  0  0  0  0
   19.9118   72.0928   -4.6372 O   0  0  0  0  0  0  0  0  0  0  0  0
   21.3941   72.6342   -6.4568 C   0  0  1  0  0  0  0  0  0  0  0  0
   22.5650   73.5243   -6.8781 C   0  0  1  0  0  0  0  0  0  0  0  0
   20.8807   73.0388   -5.0762 C   0  0  2  0  0  0  0  0  0  0  0  0
   23.6217   73.6115   -5.7687 C   0  0  1  0  0  0  0  0  0  0  0  0
   22.0184   73.1435   -4.0589 C   0  0  1  0  0  0  0  0  0  0  0  0
   20.6614   72.5395   -8.2910 H   0  0  0  0  0  0  0  0  0  0  0  0
   22.4560   72.9235   -8.7553 H   0  0  0  0  0  0  0  0  0  0  0  0
   19.1968   72.0360   -5.2895 H   0  0  0  0  0  0  0  0  0  0  0  0
   25.4474   74.1344   -7.2186 O   0  0  0  0  0  0  0  0  0  0  0  0
   24.7208   74.6174   -6.1036 C   0  0  0  0  0  0  0  0  0  0  0  0
   26.1503   74.7647   -7.4433 H   0  0  0  0  0  0  0  0  0  0  0  0
 25 28  1  0
 25 24  1  0
 25 26  1  6
 25 27  2  0
  1  4  1  0
  1 24  1  0
  1  2  1  1
  1  3  2  0
  6 11  1  0
  6 12  1  0
 29 36  1  0
 29 37  1  0
  9  7  1  1
  7 13  1  0
 10  8  1  1
  8 14  1  0
 37 28  1  6
  4  5  1  0
 33 30  1  6
 30 38  1  0
 34 31  1  6
 31 39  1  0
 35 32  1  1
 32 40  1  0
 41 42  1  0
 41 43  1  0
 15 19  2  0
 16 22  2  0
 12 17  1  6
 17 19  1  0
 17 20  1  0
 18 19  1  0
 18 22  1  0
 18 23  1  0
  9 10  1  0
  9 11  1  0
 10 12  1  0
 11  5  1  6
 33 34  1  0
 33 35  1  0
 34 36  1  0
 35 37  1  0
 36 42  1  6
 20 21  2  0
 21 22  1  0
M  CHG  2   2  -1  26  -1
M  END
>  <COMPND>  (42) 
    8629 

>  <AUTHOR>  (42) 
    GENERATED BY OPEN BABEL 3.1.1

>  <MASTER>  (42) 
        0    0    0    0    0    0    0    0   58    0   58    0

>  <minimizedAffinity>  (42) 
-8.67276

>  <CNNscore>  (42) 
0.6364486217

>  <CNNaffinity>  (42) 
4.4875621796

>  <CNN_VS>  (42) 
2.8561027050

>  <CNNaffinity_variance>  (42) 
0.6554620862

$$$$
43
     RDKit          3D

 43 45  0  0  0  0  0  0  0  0999 V2000
   19.9148   69.9141   -1.8441 P   0  0  2  0  0  0  0  0  0  0  0  0
   19.9041   68.8482   -3.0611 O   0  0  0  0  0  0  0  0  0  0  0  0
   20.5955   69.4411   -0.5933 O   0  0  0  0  0  0  0  0  0  0  0  0
   18.3608   70.3345   -1.6822 O   0  0  0  0  0  0  0  0  0  0  0  0
   17.7921   71.2050   -2.6449 C   0  0  0  0  0  0  0  0  0  0  0  0
   16.1192   71.0503   -4.3628 O   0  0  0  0  0  0  0  0  0  0  0  0
   14.8457   68.9275   -2.6708 O   0  0  0  0  0  0  0  0  0  0  0  0
   16.1523   67.4699   -4.5694 O   0  0  0  0  0  0  0  0  0  0  0  0
   16.2293   69.2104   -2.8734 C   0  0  1  0  0  0  0  0  0  0  0  0
   16.6649   68.7469   -4.2479 C   0  0  2  0  0  0  0  0  0  0  0  0
   16.3882   70.7217   -2.9822 C   0  0  1  0  0  0  0  0  0  0  0  0
   16.1078   69.8424   -5.1410 C   0  0  2  0  0  0  0  0  0  0  0  0
   14.7193   67.9680   -2.5980 H   0  0  0  0  0  0  0  0  0  0  0  0
   16.5366   66.8078   -3.9738 H   0  0  0  0  0  0  0  0  0  0  0  0
   15.2348   71.2511   -7.4282 O   0  0  0  0  0  0  0  0  0  0  0  0
   19.2291   70.5412   -9.6153 O   0  0  0  0  0  0  0  0  0  0  0  0
   16.8992   70.0412   -6.3223 N   0  0  0  0  0  0  0  0  0  0  0  0
   17.2244   70.8966   -8.5153 N   0  0  0  0  0  0  0  0  0  0  0  0
   16.3666   70.7627   -7.4161 C   0  0  0  0  0  0  0  0  0  0  0  0
   18.1884   69.5239   -6.3880 C   0  0  0  0  0  0  0  0  0  0  0  0
   18.9932   69.6592   -7.4440 C   0  0  0  0  0  0  0  0  0  0  0  0
   18.5131   70.3996   -8.6287 C   0  0  0  0  0  0  0  0  0  0  0  0
   16.8746   71.3951   -9.2891 H   0  0  0  0  0  0  0  0  0  0  0  0
   20.5781   71.2262   -2.5159 O   0  0  0  0  0  0  0  0  0  0  0  0
   22.1040   71.7596   -2.5219 P   0  0  2  0  0  0  0  0  0  0  0  0
   22.9402   70.4857   -3.0653 O   0  0  0  0  0  0  0  0  0  0  0  0
   22.5752   72.2912   -1.1993 O   0  0  0  0  0  0  0  0  0  0  0  0
   22.1584   72.8284   -3.7301 O   0  0  0  0  0  0  0  0  0  0  0  0
   23.6794   73.0661   -5.5320 O   0  0  0  0  0  0  0  0  0  0  0  0
   23.0208   77.0554   -4.6938 O   0  0  0  0  0  0  0  0  0  0  0  0
   21.8928   75.9005   -7.0691 O   0  0  0  0  0  0  0  0  0  0  0  0
   23.2108   75.1383   -2.5333 O   0  0  0  0  0  0  0  0  0  0  0  0
   22.6690   75.6748   -4.8180 C   0  0  1  0  0  0  0  0  0  0  0  0
   22.8827   75.2544   -6.2735 C   0  0  1  0  0  0  0  0  0  0  0  0
   23.5521   74.8487   -3.8846 C   0  0  2  0  0  0  0  0  0  0  0  0
   22.7837   73.7311   -6.4304 C   0  0  1  0  0  0  0  0  0  0  0  0
   23.4144   73.3497   -4.1567 C   0  0  1  0  0  0  0  0  0  0  0  0
   22.4634   77.5855   -5.2836 H   0  0  0  0  0  0  0  0  0  0  0  0
   21.9659   76.8618   -6.9606 H   0  0  0  0  0  0  0  0  0  0  0  0
   23.3022   76.0901   -2.3736 H   0  0  0  0  0  0  0  0  0  0  0  0
   23.9356   74.2848   -8.4492 O   0  0  0  0  0  0  0  0  0  0  0  0
   23.1488   73.2766   -7.8419 C   0  0  0  0  0  0  0  0  0  0  0  0
   24.1757   74.0091   -9.3481 H   0  0  0  0  0  0  0  0  0  0  0  0
 25 28  1  0
 25 24  1  0
 25 26  1  6
 25 27  2  0
  1  4  1  0
  1 24  1  0
  1  2  1  6
  1  3  2  0
  6 11  1  0
  6 12  1  0
 29 36  1  0
 29 37  1  0
  9  7  1  6
  7 13  1  0
 10  8  1  6
  8 14  1  0
 37 28  1  6
  4  5  1  0
 33 30  1  6
 30 38  1  0
 34 31  1  6
 31 39  1  0
 35 32  1  1
 32 40  1  0
 41 42  1  0
 41 43  1  0
 15 19  2  0
 16 22  2  0
 12 17  1  6
 17 19  1  0
 17 20  1  0
 18 19  1  0
 18 22  1  0
 18 23  1  0
  9 10  1  0
  9 11  1  0
 10 12  1  0
 11  5  1  6
 33 34  1  0
 33 35  1  0
 34 36  1  0
 35 37  1  0
 36 42  1  6
 20 21  2  0
 21 22  1  0
M  CHG  2   2  -1  26  -1
M  END
>  <COMPND>  (43) 
    8629 

>  <AUTHOR>  (43) 
    GENERATED BY OPEN BABEL 3.1.1

>  <MASTER>  (43) 
        0    0    0    0    0    0    0    0   58    0   58    0

>  <minimizedAffinity>  (43) 
-6.80795

>  <CNNscore>  (43) 
0.6066573858

>  <CNNaffinity>  (43) 
4.4456086159

>  <CNN_VS>  (43) 
2.6969614029

>  <CNNaffinity_variance>  (43) 
0.2789669931

$$$$
44
     RDKit          3D

 43 45  0  0  0  0  0  0  0  0999 V2000
   20.1680   71.4566   -1.0441 P   0  0  2  0  0  0  0  0  0  0  0  0
   20.5779   69.9161   -1.3203 O   0  0  0  0  0  0  0  0  0  0  0  0
   19.0392   71.6479   -0.0742 O   0  0  0  0  0  0  0  0  0  0  0  0
   19.9340   72.0675   -2.5240 O   0  0  0  0  0  0  0  0  0  0  0  0
   19.5664   71.1846   -3.5696 C   0  0  0  0  0  0  0  0  0  0  0  0
   17.4977   71.3079   -4.7857 O   0  0  0  0  0  0  0  0  0  0  0  0
   16.3913   69.4311   -2.7256 O   0  0  0  0  0  0  0  0  0  0  0  0
   16.9001   67.7718   -4.8291 O   0  0  0  0  0  0  0  0  0  0  0  0
   17.6994   69.4785   -3.2930 C   0  0  1  0  0  0  0  0  0  0  0  0
   17.6773   68.9460   -4.7105 C   0  0  2  0  0  0  0  0  0  0  0  0
   18.0646   70.9419   -3.5086 C   0  0  1  0  0  0  0  0  0  0  0  0
   17.0880   70.1172   -5.4780 C   0  0  2  0  0  0  0  0  0  0  0  0
   16.1362   68.5063   -2.5784 H   0  0  0  0  0  0  0  0  0  0  0  0
   17.3162   67.0561   -4.3238 H   0  0  0  0  0  0  0  0  0  0  0  0
   15.7500   71.4515   -7.5773 O   0  0  0  0  0  0  0  0  0  0  0  0
   18.9973   70.2859  -10.6331 O   0  0  0  0  0  0  0  0  0  0  0  0
   17.5615   70.1787   -6.8320 N   0  0  0  0  0  0  0  0  0  0  0  0
   17.3681   70.8702   -9.0971 N   0  0  0  0  0  0  0  0  0  0  0  0
   16.8137   70.8738   -7.8108 C   0  0  0  0  0  0  0  0  0  0  0  0
   18.7552   69.5546   -7.1777 C   0  0  0  0  0  0  0  0  0  0  0  0
   19.2696   69.5594   -8.4092 C   0  0  0  0  0  0  0  0  0  0  0  0
   18.5504   70.2634   -9.4905 C   0  0  0  0  0  0  0  0  0  0  0  0
   16.8643   71.3479   -9.7955 H   0  0  0  0  0  0  0  0  0  0  0  0
   21.5662   72.1290   -0.5904 O   0  0  0  0  0  0  0  0  0  0  0  0
   23.0692   71.9351   -1.1527 P   0  0  2  0  0  0  0  0  0  0  0  0
   22.8656   71.9180   -2.7576 O   0  0  0  0  0  0  0  0  0  0  0  0
   23.7802   70.7312   -0.6058 O   0  0  0  0  0  0  0  0  0  0  0  0
   23.8032   73.3402   -0.8497 O   0  0  0  0  0  0  0  0  0  0  0  0
   23.8582   75.0736    0.7654 O   0  0  0  0  0  0  0  0  0  0  0  0
   22.9914   77.3230   -2.5872 O   0  0  0  0  0  0  0  0  0  0  0  0
   25.6104   77.4716   -1.4182 O   0  0  0  0  0  0  0  0  0  0  0  0
   21.7951   74.7082   -2.2538 O   0  0  0  0  0  0  0  0  0  0  0  0
   23.5989   76.2541   -1.8566 C   0  0  1  0  0  0  0  0  0  0  0  0
   24.4951   76.8609   -0.7752 C   0  0  1  0  0  0  0  0  0  0  0  0
   22.5044   75.3940   -1.2276 C   0  0  2  0  0  0  0  0  0  0  0  0
   24.9703   75.7898    0.2158 C   0  0  1  0  0  0  0  0  0  0  0  0
   23.0791   74.3950   -0.2217 C   0  0  1  0  0  0  0  0  0  0  0  0
   23.6809   77.8726   -2.9895 H   0  0  0  0  0  0  0  0  0  0  0  0
   25.2966   78.1456   -2.0415 H   0  0  0  0  0  0  0  0  0  0  0  0
   21.4359   75.3515   -2.8839 H   0  0  0  0  0  0  0  0  0  0  0  0
   24.9313   76.2923    2.5513 O   0  0  0  0  0  0  0  0  0  0  0  0
   25.7348   76.3963    1.3904 C   0  0  0  0  0  0  0  0  0  0  0  0
   25.4053   76.6741    3.3071 H   0  0  0  0  0  0  0  0  0  0  0  0
 25 28  1  0
 25 24  1  0
 25 26  1  6
 25 27  2  0
  1  4  1  0
  1 24  1  0
  1  2  1  6
  1  3  2  0
  6 11  1  0
  6 12  1  0
 29 36  1  0
 29 37  1  0
  9  7  1  6
  7 13  1  0
 10  8  1  1
  8 14  1  0
 37 28  1  6
  4  5  1  0
 33 30  1  1
 30 38  1  0
 34 31  1  6
 31 39  1  0
 35 32  1  6
 32 40  1  0
 41 42  1  0
 41 43  1  0
 15 19  2  0
 16 22  2  0
 12 17  1  6
 17 19  1  0
 17 20  1  0
 18 19  1  0
 18 22  1  0
 18 23  1  0
  9 10  1  0
  9 11  1  0
 10 12  1  0
 11  5  1  6
 33 34  1  0
 33 35  1  0
 34 36  1  0
 35 37  1  0
 36 42  1  1
 20 21  2  0
 21 22  1  0
M  CHG  2   2  -1  26  -1
M  END
>  <COMPND>  (44) 
    8629 

>  <AUTHOR>  (44) 
    GENERATED BY OPEN BABEL 3.1.1

>  <MASTER>  (44) 
        0    0    0    0    0    0    0    0   58    0   58    0

>  <minimizedAffinity>  (44) 
-7.46237

>  <CNNscore>  (44) 
0.5941134095

>  <CNNaffinity>  (44) 
4.5491380692

>  <CNN_VS>  (44) 
2.7027039528

>  <CNNaffinity_variance>  (44) 
0.0393457338

$$$$
45
     RDKit          3D

 43 45  0  0  0  0  0  0  0  0999 V2000
   20.3257   70.5872   -1.4568 P   0  0  2  0  0  0  0  0  0  0  0  0
   20.2449   69.1912   -0.6430 O   0  0  0  0  0  0  0  0  0  0  0  0
   20.1532   71.8200   -0.6191 O   0  0  0  0  0  0  0  0  0  0  0  0
   19.2581   70.3988   -2.6579 O   0  0  0  0  0  0  0  0  0  0  0  0
   18.6313   71.5518   -3.1924 C   0  0  0  0  0  0  0  0  0  0  0  0
   16.7178   71.6148   -4.6444 O   0  0  0  0  0  0  0  0  0  0  0  0
   15.3878   69.8006   -2.6618 O   0  0  0  0  0  0  0  0  0  0  0  0
   16.1459   68.0742   -4.6319 O   0  0  0  0  0  0  0  0  0  0  0  0
   16.7528   69.8399   -3.0746 C   0  0  1  0  0  0  0  0  0  0  0  0
   16.8985   69.2585   -4.4654 C   0  0  2  0  0  0  0  0  0  0  0  0
   17.1338   71.2981   -3.2979 C   0  0  1  0  0  0  0  0  0  0  0  0
   16.3971   70.3973   -5.3370 C   0  0  2  0  0  0  0  0  0  0  0  0
   15.1216   68.8793   -2.5127 H   0  0  0  0  0  0  0  0  0  0  0  0
   16.5036   67.3800   -4.0567 H   0  0  0  0  0  0  0  0  0  0  0  0
   15.3244   71.6783   -7.6144 O   0  0  0  0  0  0  0  0  0  0  0  0
   18.8921   70.4028  -10.2385 O   0  0  0  0  0  0  0  0  0  0  0  0
   17.0248   70.4161   -6.6282 N   0  0  0  0  0  0  0  0  0  0  0  0
   17.1018   71.0423   -8.9191 N   0  0  0  0  0  0  0  0  0  0  0  0
   16.4022   71.0871   -7.7064 C   0  0  0  0  0  0  0  0  0  0  0  0
   18.2443   69.7745   -6.8152 C   0  0  0  0  0  0  0  0  0  0  0  0
   18.8978   69.7399   -7.9784 C   0  0  0  0  0  0  0  0  0  0  0  0
   18.3157   70.4167   -9.1552 C   0  0  0  0  0  0  0  0  0  0  0  0
   16.6870   71.5027   -9.6845 H   0  0  0  0  0  0  0  0  0  0  0  0
   21.7489   70.4834   -2.2161 O   0  0  0  0  0  0  0  0  0  0  0  0
   23.1301   71.2943   -1.9978 P   0  0  2  0  0  0  0  0  0  0  0  0
   24.0056   70.8926   -3.2977 O   0  0  0  0  0  0  0  0  0  0  0  0
   23.8059   71.0168   -0.6862 O   0  0  0  0  0  0  0  0  0  0  0  0
   22.7369   72.8418   -2.2335 O   0  0  0  0  0  0  0  0  0  0  0  0
   23.8118   74.9501   -2.3626 O   0  0  0  0  0  0  0  0  0  0  0  0
   20.8833   75.8706    0.3992 O   0  0  0  0  0  0  0  0  0  0  0  0
   20.6819   76.8956   -2.2760 O   0  0  0  0  0  0  0  0  0  0  0  0
   22.1850   73.2863    0.4818 O   0  0  0  0  0  0  0  0  0  0  0  0
   21.4335   75.2165   -0.7474 C   0  0  1  0  0  0  0  0  0  0  0  0
   21.8598   76.2884   -1.7525 C   0  0  1  0  0  0  0  0  0  0  0  0
   22.6342   74.3770   -0.3150 C   0  0  2  0  0  0  0  0  0  0  0  0
   22.6979   75.6826   -2.8864 C   0  0  1  0  0  0  0  0  0  0  0  0
   23.4270   73.8634   -1.5182 C   0  0  1  0  0  0  0  0  0  0  0  0
   20.1202   76.4049    0.1316 H   0  0  0  0  0  0  0  0  0  0  0  0
   20.1615   77.2737   -1.5498 H   0  0  0  0  0  0  0  0  0  0  0  0
   21.6848   73.6246    1.2403 H   0  0  0  0  0  0  0  0  0  0  0  0
   22.2755   77.0945   -4.7671 O   0  0  0  0  0  0  0  0  0  0  0  0
   23.2655   76.7549   -3.8137 C   0  0  0  0  0  0  0  0  0  0  0  0
   22.6226   77.7763   -5.3640 H   0  0  0  0  0  0  0  0  0  0  0  0
 25 28  1  0
 25 24  1  0
 25 26  1  6
 25 27  2  0
  1  4  1  0
  1 24  1  0
  1  2  1  1
  1  3  2  0
  6 11  1  0
  6 12  1  0
 29 36  1  0
 29 37  1  0
  9  7  1  6
  7 13  1  0
 10  8  1  1
  8 14  1  0
 37 28  1  6
  4  5  1  0
 33 30  1  1
 30 38  1  0
 34 31  1  6
 31 39  1  0
 35 32  1  6
 32 40  1  0
 41 42  1  0
 41 43  1  0
 15 19  2  0
 16 22  2  0
 12 17  1  6
 17 19  1  0
 17 20  1  0
 18 19  1  0
 18 22  1  0
 18 23  1  0
  9 10  1  0
  9 11  1  0
 10 12  1  0
 11  5  1  6
 33 34  1  0
 33 35  1  0
 34 36  1  0
 35 37  1  0
 36 42  1  6
 20 21  2  0
 21 22  1  0
M  CHG  2   2  -1  26  -1
M  END
>  <COMPND>  (45) 
    8629 

>  <AUTHOR>  (45) 
    GENERATED BY OPEN BABEL 3.1.1

>  <MASTER>  (45) 
        0    0    0    0    0    0    0    0   58    0   58    0

>  <minimizedAffinity>  (45) 
-7.51800

>  <CNNscore>  (45) 
0.5514709949

>  <CNNaffinity>  (45) 
4.5355510712

>  <CNN_VS>  (45) 
2.5012247562

>  <CNNaffinity_variance>  (45) 
0.0594135039

$$$$
46
     RDKit          3D

 43 45  0  0  0  0  0  0  0  0999 V2000
   21.3571   71.3782   -1.7369 P   0  0  2  0  0  0  0  0  0  0  0  0
   22.6495   70.9889   -0.8451 O   0  0  0  0  0  0  0  0  0  0  0  0
   20.5221   72.4975   -1.1880 O   0  0  0  0  0  0  0  0  0  0  0  0
   20.5915   69.9684   -1.9475 O   0  0  0  0  0  0  0  0  0  0  0  0
   19.9547   69.7238   -3.1894 C   0  0  0  0  0  0  0  0  0  0  0  0
   17.8843   70.5420   -4.0937 O   0  0  0  0  0  0  0  0  0  0  0  0
   16.5344   68.5265   -2.3313 O   0  0  0  0  0  0  0  0  0  0  0  0
   16.4896   67.3078   -4.7704 O   0  0  0  0  0  0  0  0  0  0  0  0
   17.7721   68.4256   -3.0334 C   0  0  1  0  0  0  0  0  0  0  0  0
   17.5222   68.2381   -4.5153 C   0  0  2  0  0  0  0  0  0  0  0  0
   18.4462   69.7915   -2.9949 C   0  0  1  0  0  0  0  0  0  0  0  0
   17.1615   69.6469   -4.9548 C   0  0  2  0  0  0  0  0  0  0  0  0
   16.0856   67.6660   -2.3420 H   0  0  0  0  0  0  0  0  0  0  0  0
   16.7670   66.4271   -4.4734 H   0  0  0  0  0  0  0  0  0  0  0  0
   15.7367   71.3505   -6.6999 O   0  0  0  0  0  0  0  0  0  0  0  0
   18.6812   70.5723  -10.1590 O   0  0  0  0  0  0  0  0  0  0  0  0
   17.5337   69.9080   -6.3167 N   0  0  0  0  0  0  0  0  0  0  0  0
   17.2041   70.9618   -8.4208 N   0  0  0  0  0  0  0  0  0  0  0  0
   16.7495   70.7788   -7.1086 C   0  0  0  0  0  0  0  0  0  0  0  0
   18.6652   69.3038   -6.8539 C   0  0  0  0  0  0  0  0  0  0  0  0
   19.0845   69.4877   -8.1075 C   0  0  0  0  0  0  0  0  0  0  0  0
   18.3215   70.3828   -9.0012 C   0  0  0  0  0  0  0  0  0  0  0  0
   16.6733   71.5640   -8.9912 H   0  0  0  0  0  0  0  0  0  0  0  0
   21.9946   71.6666   -3.1941 O   0  0  0  0  0  0  0  0  0  0  0  0
   22.5621   73.0289   -3.8538 P   0  0  2  0  0  0  0  0  0  0  0  0
   23.4750   72.4958   -5.0785 O   0  0  0  0  0  0  0  0  0  0  0  0
   23.2824   73.9261   -2.8893 O   0  0  0  0  0  0  0  0  0  0  0  0
   21.2797   73.7035   -4.5648 O   0  0  0  0  0  0  0  0  0  0  0  0
   19.0053   73.4898   -3.9339 O   0  0  0  0  0  0  0  0  0  0  0  0
   18.5244   73.8702   -8.0174 O   0  0  0  0  0  0  0  0  0  0  0  0
   17.7910   76.0476   -6.2943 O   0  0  0  0  0  0  0  0  0  0  0  0
   20.7458   72.3441   -6.9611 O   0  0  0  0  0  0  0  0  0  0  0  0
   19.1340   74.1213   -6.7483 C   0  0  1  0  0  0  0  0  0  0  0  0
   18.0809   74.7345   -5.8233 C   0  0  1  0  0  0  0  0  0  0  0  0
   19.6523   72.8040   -6.1742 C   0  0  2  0  0  0  0  0  0  0  0  0
   18.5796   74.7851   -4.3728 C   0  0  1  0  0  0  0  0  0  0  0  0
   20.0770   72.9533   -4.7122 C   0  0  1  0  0  0  0  0  0  0  0  0
   18.1936   74.7027   -8.3876 H   0  0  0  0  0  0  0  0  0  0  0  0
   17.4776   76.0017   -7.2113 H   0  0  0  0  0  0  0  0  0  0  0  0
   20.4641   72.2535   -7.8843 H   0  0  0  0  0  0  0  0  0  0  0  0
   16.2305   75.0543   -4.0287 O   0  0  0  0  0  0  0  0  0  0  0  0
   17.4887   75.2464   -3.4088 C   0  0  0  0  0  0  0  0  0  0  0  0
   15.5266   75.3433   -3.4265 H   0  0  0  0  0  0  0  0  0  0  0  0
 25 28  1  0
 25 24  1  0
 25 26  1  6
 25 27  2  0
  1  4  1  0
  1 24  1  0
  1  2  1  1
  1  3  2  0
  6 11  1  0
  6 12  1  0
 29 36  1  0
 29 37  1  0
  9  7  1  1
  7 13  1  0
 10  8  1  1
  8 14  1  0
 37 28  1  6
  4  5  1  0
 33 30  1  6
 30 38  1  0
 34 31  1  6
 31 39  1  0
 35 32  1  6
 32 40  1  0
 41 42  1  0
 41 43  1  0
 15 19  2  0
 16 22  2  0
 12 17  1  6
 17 19  1  0
 17 20  1  0
 18 19  1  0
 18 22  1  0
 18 23  1  0
  9 10  1  0
  9 11  1  0
 10 12  1  0
 11  5  1  6
 33 34  1  0
 33 35  1  0
 34 36  1  0
 35 37  1  0
 36 42  1  1
 20 21  2  0
 21 22  1  0
M  CHG  2   2  -1  26  -1
M  END
>  <COMPND>  (46) 
    8629 

>  <AUTHOR>  (46) 
    GENERATED BY OPEN BABEL 3.1.1

>  <MASTER>  (46) 
        0    0    0    0    0    0    0    0   58    0   58    0

>  <minimizedAffinity>  (46) 
-7.11917

>  <CNNscore>  (46) 
0.5136070848

>  <CNNaffinity>  (46) 
4.2368540764

>  <CNN_VS>  (46) 
2.1760783195

>  <CNNaffinity_variance>  (46) 
0.4695730209

$$$$
47
     RDKit          3D

 43 45  0  0  0  0  0  0  0  0999 V2000
   20.5709   71.2612   -1.2159 P   0  0  2  0  0  0  0  0  0  0  0  0
   20.2984   69.7041   -0.8716 O   0  0  0  0  0  0  0  0  0  0  0  0
   21.0398   72.0936   -0.0589 O   0  0  0  0  0  0  0  0  0  0  0  0
   19.1992   71.7487   -1.9220 O   0  0  0  0  0  0  0  0  0  0  0  0
   18.9052   71.2775   -3.2256 C   0  0  0  0  0  0  0  0  0  0  0  0
   16.9184   71.2035   -4.5751 O   0  0  0  0  0  0  0  0  0  0  0  0
   15.9356   69.0973   -2.6807 O   0  0  0  0  0  0  0  0  0  0  0  0
   16.7851   67.6275   -4.8150 O   0  0  0  0  0  0  0  0  0  0  0  0
   17.2598   69.3382   -3.1538 C   0  0  1  0  0  0  0  0  0  0  0  0
   17.3956   68.8822   -4.5915 C   0  0  2  0  0  0  0  0  0  0  0  0
   17.4463   70.8452   -3.2792 C   0  0  1  0  0  0  0  0  0  0  0  0
   16.7098   70.0087   -5.3456 C   0  0  2  0  0  0  0  0  0  0  0  0
   15.7930   68.1413   -2.5923 H   0  0  0  0  0  0  0  0  0  0  0  0
   17.2573   66.9442   -4.3141 H   0  0  0  0  0  0  0  0  0  0  0  0
   15.3901   71.3702   -7.4391 O   0  0  0  0  0  0  0  0  0  0  0  0
   18.8996   70.6806  -10.3459 O   0  0  0  0  0  0  0  0  0  0  0  0
   17.2557   70.2000   -6.6597 N   0  0  0  0  0  0  0  0  0  0  0  0
   17.1387   71.0259   -8.8847 N   0  0  0  0  0  0  0  0  0  0  0  0
   16.5108   70.8974   -7.6392 C   0  0  0  0  0  0  0  0  0  0  0  0
   18.5163   69.6992   -6.9661 C   0  0  0  0  0  0  0  0  0  0  0  0
   19.1004   69.8291   -8.1591 C   0  0  0  0  0  0  0  0  0  0  0  0
   18.3893   70.5446   -9.2382 C   0  0  0  0  0  0  0  0  0  0  0  0
   16.6384   71.5077   -9.5828 H   0  0  0  0  0  0  0  0  0  0  0  0
   21.6086   71.1837   -2.4530 O   0  0  0  0  0  0  0  0  0  0  0  0
   22.7621   72.2076   -2.9367 P   0  0  2  0  0  0  0  0  0  0  0  0
   23.7970   71.2517   -3.7322 O   0  0  0  0  0  0  0  0  0  0  0  0
   23.3833   73.0040   -1.8260 O   0  0  0  0  0  0  0  0  0  0  0  0
   22.0622   73.0973   -4.0873 O   0  0  0  0  0  0  0  0  0  0  0  0
   20.5700   72.5643   -5.8496 O   0  0  0  0  0  0  0  0  0  0  0  0
   23.0212   75.2236   -7.8421 O   0  0  0  0  0  0  0  0  0  0  0  0
   20.3558   76.0165   -7.1244 O   0  0  0  0  0  0  0  0  0  0  0  0
   24.1560   73.3633   -5.9367 O   0  0  0  0  0  0  0  0  0  0  0  0
   22.3099   74.6984   -6.7181 C   0  0  1  0  0  0  0  0  0  0  0  0
   20.8198   74.6706   -7.0639 C   0  0  1  0  0  0  0  0  0  0  0  0
   22.8188   73.2895   -6.4193 C   0  0  2  0  0  0  0  0  0  0  0  0
   20.0233   73.8773   -6.0191 C   0  0  1  0  0  0  0  0  0  0  0  0
   21.9279   72.5704   -5.4047 C   0  0  1  0  0  0  0  0  0  0  0  0
   22.7031   76.1183   -8.0368 H   0  0  0  0  0  0  0  0  0  0  0  0
   20.8672   76.5065   -7.7874 H   0  0  0  0  0  0  0  0  0  0  0  0
   24.7100   73.8203   -6.5880 H   0  0  0  0  0  0  0  0  0  0  0  0
   18.4736   73.7938   -7.8358 O   0  0  0  0  0  0  0  0  0  0  0  0
   18.5617   73.7029   -6.4257 C   0  0  0  0  0  0  0  0  0  0  0  0
   17.5489   73.6843   -8.1090 H   0  0  0  0  0  0  0  0  0  0  0  0
 25 28  1  0
 25 24  1  0
 25 26  1  6
 25 27  2  0
  1  4  1  0
  1 24  1  0
  1  2  1  1
  1  3  2  0
  6 11  1  0
  6 12  1  0
 29 36  1  0
 29 37  1  0
  9  7  1  6
  7 13  1  0
 10  8  1  1
  8 14  1  0
 37 28  1  1
  4  5  1  0
 33 30  1  6
 30 38  1  0
 34 31  1  1
 31 39  1  0
 35 32  1  1
 32 40  1  0
 41 42  1  0
 41 43  1  0
 15 19  2  0
 16 22  2  0
 12 17  1  6
 17 19  1  0
 17 20  1  0
 18 19  1  0
 18 22  1  0
 18 23  1  0
  9 10  1  0
  9 11  1  0
 10 12  1  0
 11  5  1  6
 33 34  1  0
 33 35  1  0
 34 36  1  0
 35 37  1  0
 36 42  1  6
 20 21  2  0
 21 22  1  0
M  CHG  2   2  -1  26  -1
M  END
>  <COMPND>  (47) 
    8629 

>  <AUTHOR>  (47) 
    GENERATED BY OPEN BABEL 3.1.1

>  <MASTER>  (47) 
        0    0    0    0    0    0    0    0   58    0   58    0

>  <minimizedAffinity>  (47) 
-7.66728

>  <CNNscore>  (47) 
0.4982096255

>  <CNNaffinity>  (47) 
4.2406630516

>  <CNN_VS>  (47) 
2.1127390862

>  <CNNaffinity_variance>  (47) 
0.6818081141

$$$$
48
     RDKit          3D

 43 45  0  0  0  0  0  0  0  0999 V2000
   19.3354   69.8407   -3.9478 P   0  0  2  0  0  0  0  0  0  0  0  0
   19.5755   68.4204   -3.2112 O   0  0  0  0  0  0  0  0  0  0  0  0
   18.3661   70.7559   -3.2591 O   0  0  0  0  0  0  0  0  0  0  0  0
   18.9575   69.4314   -5.4668 O   0  0  0  0  0  0  0  0  0  0  0  0
   19.3160   70.3157   -6.5144 C   0  0  0  0  0  0  0  0  0  0  0  0
   17.0630   70.1922   -7.3405 O   0  0  0  0  0  0  0  0  0  0  0  0
   18.2594   70.3524  -10.0852 O   0  0  0  0  0  0  0  0  0  0  0  0
   17.3886   72.9025   -9.6667 O   0  0  0  0  0  0  0  0  0  0  0  0
   18.6749   70.9948   -8.8810 C   0  0  1  0  0  0  0  0  0  0  0  0
   17.7299   72.1268   -8.5359 C   0  0  2  0  0  0  0  0  0  0  0  0
   18.4443   70.0254   -7.7284 C   0  0  1  0  0  0  0  0  0  0  0  0
   16.5399   71.3791   -7.9590 C   0  0  2  0  0  0  0  0  0  0  0  0
   18.3975   70.9522  -10.8357 H   0  0  0  0  0  0  0  0  0  0  0  0
   18.1785   73.3584   -9.9967 H   0  0  0  0  0  0  0  0  0  0  0  0
   14.4306   73.1673   -8.5344 O   0  0  0  0  0  0  0  0  0  0  0  0
   13.9149   74.2769   -4.0910 O   0  0  0  0  0  0  0  0  0  0  0  0
   15.8363   72.1481   -6.9716 N   0  0  0  0  0  0  0  0  0  0  0  0
   14.1754   73.7182   -6.3215 N   0  0  0  0  0  0  0  0  0  0  0  0
   14.7929   73.0179   -7.3656 C   0  0  0  0  0  0  0  0  0  0  0  0
   16.1824   72.0353   -5.6294 C   0  0  0  0  0  0  0  0  0  0  0  0
   15.5845   72.7111   -4.6460 C   0  0  0  0  0  0  0  0  0  0  0  0
   14.4844   73.6412   -4.9726 C   0  0  0  0  0  0  0  0  0  0  0  0
   13.4460   74.3304   -6.5722 H   0  0  0  0  0  0  0  0  0  0  0  0
   20.8327   70.4325   -4.0927 O   0  0  0  0  0  0  0  0  0  0  0  0
   21.7579   71.2473   -3.0473 P   0  0  2  0  0  0  0  0  0  0  0  0
   23.2041   70.5385   -3.2010 O   0  0  0  0  0  0  0  0  0  0  0  0
   21.2260   71.2710   -1.6436 O   0  0  0  0  0  0  0  0  0  0  0  0
   21.9448   72.7041   -3.7164 O   0  0  0  0  0  0  0  0  0  0  0  0
   23.5455   72.9688   -5.4439 O   0  0  0  0  0  0  0  0  0  0  0  0
   23.1433   76.9179   -4.3063 O   0  0  0  0  0  0  0  0  0  0  0  0
   22.0256   76.0403   -6.8021 O   0  0  0  0  0  0  0  0  0  0  0  0
   23.1141   74.8281   -2.3034 O   0  0  0  0  0  0  0  0  0  0  0  0
   22.6984   75.5813   -4.5532 C   0  0  1  0  0  0  0  0  0  0  0  0
   22.9360   75.2618   -6.0304 C   0  0  1  0  0  0  0  0  0  0  0  0
   23.4843   74.6210   -3.6623 C   0  0  2  0  0  0  0  0  0  0  0  0
   22.7341   73.7671   -6.3135 C   0  0  1  0  0  0  0  0  0  0  0  0
   23.2500   73.1624   -4.0593 C   0  0  1  0  0  0  0  0  0  0  0  0
   22.6478   77.5327   -4.8686 H   0  0  0  0  0  0  0  0  0  0  0  0
   22.1632   76.9820   -6.6137 H   0  0  0  0  0  0  0  0  0  0  0  0
   23.2674   75.7550   -2.0643 H   0  0  0  0  0  0  0  0  0  0  0  0
   22.4947   72.1721   -8.0763 O   0  0  0  0  0  0  0  0  0  0  0  0
   23.1185   73.3990   -7.7448 C   0  0  0  0  0  0  0  0  0  0  0  0
   22.7302   71.9255   -8.9848 H   0  0  0  0  0  0  0  0  0  0  0  0
 25 28  1  0
 25 24  1  0
 25 26  1  1
 25 27  2  0
  1  4  1  0
  1 24  1  0
  1  2  1  1
  1  3  2  0
  6 11  1  0
  6 12  1  0
 29 36  1  0
 29 37  1  0
  9  7  1  6
  7 13  1  0
 10  8  1  6
  8 14  1  0
 37 28  1  6
  4  5  1  0
 33 30  1  6
 30 38  1  0
 34 31  1  6
 31 39  1  0
 35 32  1  1
 32 40  1  0
 41 42  1  0
 41 43  1  0
 15 19  2  0
 16 22  2  0
 12 17  1  1
 17 19  1  0
 17 20  1  0
 18 19  1  0
 18 22  1  0
 18 23  1  0
  9 10  1  0
  9 11  1  0
 10 12  1  0
 11  5  1  1
 33 34  1  0
 33 35  1  0
 34 36  1  0
 35 37  1  0
 36 42  1  6
 20 21  2  0
 21 22  1  0
M  CHG  2   2  -1  26  -1
M  END
>  <COMPND>  (48) 
    8629 

>  <AUTHOR>  (48) 
    GENERATED BY OPEN BABEL 3.1.1

>  <MASTER>  (48) 
        0    0    0    0    0    0    0    0   58    0   58    0

>  <minimizedAffinity>  (48) 
-7.09507

>  <CNNscore>  (48) 
0.4977496266

>  <CNNaffinity>  (48) 
4.1848936081

>  <CNN_VS>  (48) 
2.0830292702

>  <CNNaffinity_variance>  (48) 
0.2736892402

$$$$
49
     RDKit          3D

 43 45  0  0  0  0  0  0  0  0999 V2000
   22.6332   71.8031   -3.6154 P   0  0  2  0  0  0  0  0  0  0  0  0
   23.0606   72.9489   -4.6746 O   0  0  0  0  0  0  0  0  0  0  0  0
   23.6663   70.7407   -3.3798 O   0  0  0  0  0  0  0  0  0  0  0  0
   21.2022   71.2827   -4.1624 O   0  0  0  0  0  0  0  0  0  0  0  0
   20.6867   70.0644   -3.6545 C   0  0  0  0  0  0  0  0  0  0  0  0
   18.5706   70.9334   -4.3899 O   0  0  0  0  0  0  0  0  0  0  0  0
   17.3373   69.2088   -2.2696 O   0  0  0  0  0  0  0  0  0  0  0  0
   16.9140   67.7559   -4.5382 O   0  0  0  0  0  0  0  0  0  0  0  0
   18.4686   68.9488   -3.0989 C   0  0  1  0  0  0  0  0  0  0  0  0
   18.0234   68.6307   -4.5111 C   0  0  2  0  0  0  0  0  0  0  0  0
   19.2213   70.2596   -3.2904 C   0  0  1  0  0  0  0  0  0  0  0  0
   17.6938   70.0101   -5.0558 C   0  0  2  0  0  0  0  0  0  0  0  0
   16.8409   68.3861   -2.1328 H   0  0  0  0  0  0  0  0  0  0  0  0
   17.1744   66.8922   -4.1819 H   0  0  0  0  0  0  0  0  0  0  0  0
   15.9325   71.2958   -6.8511 O   0  0  0  0  0  0  0  0  0  0  0  0
   18.6096   70.3094  -10.4707 O   0  0  0  0  0  0  0  0  0  0  0  0
   17.9061   70.1045   -6.4726 N   0  0  0  0  0  0  0  0  0  0  0  0
   17.2670   70.8037   -8.6519 N   0  0  0  0  0  0  0  0  0  0  0  0
   16.9599   70.7710   -7.2856 C   0  0  0  0  0  0  0  0  0  0  0  0
   19.0424   69.5405   -7.0422 C   0  0  0  0  0  0  0  0  0  0  0  0
   19.3200   69.5793   -8.3470 C   0  0  0  0  0  0  0  0  0  0  0  0
   18.3826   70.2568   -9.2659 C   0  0  0  0  0  0  0  0  0  0  0  0
   16.6220   71.2624   -9.2378 H   0  0  0  0  0  0  0  0  0  0  0  0
   22.2320   72.6545   -2.3012 O   0  0  0  0  0  0  0  0  0  0  0  0
   21.9863   72.1931   -0.7716 P   0  0  2  0  0  0  0  0  0  0  0  0
   23.0861   73.0452    0.0543 O   0  0  0  0  0  0  0  0  0  0  0  0
   22.0634   70.7093   -0.5565 O   0  0  0  0  0  0  0  0  0  0  0  0
   20.5707   72.8548   -0.3677 O   0  0  0  0  0  0  0  0  0  0  0  0
   18.7239   73.6085   -1.6476 O   0  0  0  0  0  0  0  0  0  0  0  0
   18.8558   76.6304    1.1633 O   0  0  0  0  0  0  0  0  0  0  0  0
   16.7466   74.6842    1.2716 O   0  0  0  0  0  0  0  0  0  0  0  0
   21.3173   75.5144    0.1265 O   0  0  0  0  0  0  0  0  0  0  0  0
   18.9854   75.2886    0.6858 C   0  0  1  0  0  0  0  0  0  0  0  0
   17.6233   74.8335    0.1583 C   0  0  1  0  0  0  0  0  0  0  0  0
   20.0318   75.2535   -0.4265 C   0  0  2  0  0  0  0  0  0  0  0  0
   17.7407   73.5106   -0.6105 C   0  0  1  0  0  0  0  0  0  0  0  0
   20.0324   73.9107   -1.1593 C   0  0  1  0  0  0  0  0  0  0  0  0
   18.1932   76.6595    1.8702 H   0  0  0  0  0  0  0  0  0  0  0  0
   16.6816   75.5265    1.7487 H   0  0  0  0  0  0  0  0  0  0  0  0
   21.3039   76.3673    0.5874 H   0  0  0  0  0  0  0  0  0  0  0  0
   16.4637   71.7340   -1.5706 O   0  0  0  0  0  0  0  0  0  0  0  0
   16.4248   73.1188   -1.2790 C   0  0  0  0  0  0  0  0  0  0  0  0
   15.6324   71.4703   -1.9962 H   0  0  0  0  0  0  0  0  0  0  0  0
 25 28  1  0
 25 24  1  0
 25 26  1  1
 25 27  2  0
  1  4  1  0
  1 24  1  0
  1  2  1  6
  1  3  2  0
  6 11  1  0
  6 12  1  0
 29 36  1  0
 29 37  1  0
  9  7  1  1
  7 13  1  0
 10  8  1  1
  8 14  1  0
 37 28  1  1
  4  5  1  0
 33 30  1  6
 30 38  1  0
 34 31  1  1
 31 39  1  0
 35 32  1  1
 32 40  1  0
 41 42  1  0
 41 43  1  0
 15 19  2  0
 16 22  2  0
 12 17  1  6
 17 19  1  0
 17 20  1  0
 18 19  1  0
 18 22  1  0
 18 23  1  0
  9 10  1  0
  9 11  1  0
 10 12  1  0
 11  5  1  6
 33 34  1  0
 33 35  1  0
 34 36  1  0
 35 37  1  0
 36 42  1  6
 20 21  2  0
 21 22  1  0
M  CHG  2   2  -1  26  -1
M  END
>  <COMPND>  (49) 
    8629 

>  <AUTHOR>  (49) 
    GENERATED BY OPEN BABEL 3.1.1

>  <MASTER>  (49) 
        0    0    0    0    0    0    0    0   58    0   58    0

>  <minimizedAffinity>  (49) 
-7.20914

>  <CNNscore>  (49) 
0.4756330848

>  <CNNaffinity>  (49) 
4.3596138954

>  <CNN_VS>  (49) 
2.0735766888

>  <CNNaffinity_variance>  (49) 
0.0579547510

$$$$
50
     RDKit          3D

 43 45  0  0  0  0  0  0  0  0999 V2000
   16.5141   72.7195   -2.5536 P   0  0  2  0  0  0  0  0  0  0  0  0
   15.0907   72.4152   -1.8473 O   0  0  0  0  0  0  0  0  0  0  0  0
   17.1658   74.0054   -2.1377 O   0  0  0  0  0  0  0  0  0  0  0  0
   16.2035   72.5683   -4.1343 O   0  0  0  0  0  0  0  0  0  0  0  0
   16.3883   73.6971   -4.9706 C   0  0  0  0  0  0  0  0  0  0  0  0
   18.2910   72.3008   -5.4219 O   0  0  0  0  0  0  0  0  0  0  0  0
   18.1084   73.2863   -8.2480 O   0  0  0  0  0  0  0  0  0  0  0  0
   16.9484   70.8230   -8.4012 O   0  0  0  0  0  0  0  0  0  0  0  0
   17.0608   72.9993   -7.3231 C   0  0  1  0  0  0  0  0  0  0  0  0
   16.8958   71.5024   -7.1633 C   0  0  2  0  0  0  0  0  0  0  0  0
   17.5321   73.4172   -5.9358 C   0  0  1  0  0  0  0  0  0  0  0  0
   18.0615   71.1521   -6.2542 C   0  0  2  0  0  0  0  0  0  0  0  0
   17.8305   73.0281   -9.1413 H   0  0  0  0  0  0  0  0  0  0  0  0
   16.1861   71.0792   -8.9435 H   0  0  0  0  0  0  0  0  0  0  0  0
   20.0258   69.6720   -4.8654 O   0  0  0  0  0  0  0  0  0  0  0  0
   16.8761   66.8220   -3.0770 O   0  0  0  0  0  0  0  0  0  0  0  0
   17.7827   70.0188   -5.4181 N   0  0  0  0  0  0  0  0  0  0  0  0
   18.4559   68.2542   -3.9759 N   0  0  0  0  0  0  0  0  0  0  0  0
   18.8415   69.3447   -4.7660 C   0  0  0  0  0  0  0  0  0  0  0  0
   16.4715   69.5866   -5.2512 C   0  0  0  0  0  0  0  0  0  0  0  0
   16.1206   68.5441   -4.4953 C   0  0  0  0  0  0  0  0  0  0  0  0
   17.1666   67.7853   -3.7796 C   0  0  0  0  0  0  0  0  0  0  0  0
   19.1767   67.7691   -3.5123 H   0  0  0  0  0  0  0  0  0  0  0  0
   17.3748   71.3916   -2.2238 O   0  0  0  0  0  0  0  0  0  0  0  0
   18.7021   71.1830   -1.3251 P   0  0  2  0  0  0  0  0  0  0  0  0
   18.8540   69.5737   -1.2556 O   0  0  0  0  0  0  0  0  0  0  0  0
   18.6506   71.8585    0.0147 O   0  0  0  0  0  0  0  0  0  0  0  0
   19.9166   71.6665   -2.2718 O   0  0  0  0  0  0  0  0  0  0  0  0
   22.0760   72.1895   -1.4472 O   0  0  0  0  0  0  0  0  0  0  0  0
   22.0852   74.5277   -4.8507 O   0  0  0  0  0  0  0  0  0  0  0  0
   23.6884   72.1466   -4.7619 O   0  0  0  0  0  0  0  0  0  0  0  0
   19.6670   74.2735   -3.2800 O   0  0  0  0  0  0  0  0  0  0  0  0
   21.7643   73.3810   -4.0585 C   0  0  1  0  0  0  0  0  0  0  0  0
   23.0725   72.7239   -3.6140 C   0  0  1  0  0  0  0  0  0  0  0  0
   20.9465   73.8243   -2.8469 C   0  0  2  0  0  0  0  0  0  0  0  0
   22.8186   71.6504   -2.5471 C   0  0  1  0  0  0  0  0  0  0  0  0
   20.7945   72.6964   -1.8247 C   0  0  1  0  0  0  0  0  0  0  0  0
   22.6040   74.2531   -5.6219 H   0  0  0  0  0  0  0  0  0  0  0  0
   23.8428   72.8348   -5.4281 H   0  0  0  0  0  0  0  0  0  0  0  0
   19.7768   74.9876   -3.9264 H   0  0  0  0  0  0  0  0  0  0  0  0
   24.7796   70.3599   -2.9920 O   0  0  0  0  0  0  0  0  0  0  0  0
   24.1204   71.0927   -1.9758 C   0  0  0  0  0  0  0  0  0  0  0  0
   25.6100   69.9992   -2.6428 H   0  0  0  0  0  0  0  0  0  0  0  0
 25 28  1  0
 25 24  1  0
 25 26  1  1
 25 27  2  0
  1  4  1  0
  1 24  1  0
  1  2  1  1
  1  3  2  0
  6 11  1  0
  6 12  1  0
 29 36  1  0
 29 37  1  0
  9  7  1  6
  7 13  1  0
 10  8  1  6
  8 14  1  0
 37 28  1  6
  4  5  1  0
 33 30  1  6
 30 38  1  0
 34 31  1  6
 31 39  1  0
 35 32  1  6
 32 40  1  0
 41 42  1  0
 41 43  1  0
 15 19  2  0
 16 22  2  0
 12 17  1  1
 17 19  1  0
 17 20  1  0
 18 19  1  0
 18 22  1  0
 18 23  1  0
  9 10  1  0
  9 11  1  0
 10 12  1  0
 11  5  1  1
 33 34  1  0
 33 35  1  0
 34 36  1  0
 35 37  1  0
 36 42  1  1
 20 21  2  0
 21 22  1  0
M  CHG  2   2  -1  26  -1
M  END
>  <COMPND>  (50) 
    8629 

>  <AUTHOR>  (50) 
    GENERATED BY OPEN BABEL 3.1.1

>  <MASTER>  (50) 
        0    0    0    0    0    0    0    0   58    0   58    0

>  <minimizedAffinity>  (50) 
-7.34322

>  <CNNscore>  (50) 
0.4565687776

>  <CNNaffinity>  (50) 
4.0822749138

>  <CNN_VS>  (50) 
1.8638392687

>  <CNNaffinity_variance>  (50) 
0.6495478749

$$$$
51
     RDKit          3D

 43 45  0  0  0  0  0  0  0  0999 V2000
   22.5420   72.0597   -3.8636 P   0  0  2  0  0  0  0  0  0  0  0  0
   23.2323   72.5041   -5.2577 O   0  0  0  0  0  0  0  0  0  0  0  0
   23.4102   71.2324   -2.9619 O   0  0  0  0  0  0  0  0  0  0  0  0
   21.1495   71.3743   -4.3208 O   0  0  0  0  0  0  0  0  0  0  0  0
   20.7190   70.2040   -3.6479 C   0  0  0  0  0  0  0  0  0  0  0  0
   18.5762   71.0065   -4.3814 O   0  0  0  0  0  0  0  0  0  0  0  0
   17.3994   69.2490   -2.2561 O   0  0  0  0  0  0  0  0  0  0  0  0
   17.0173   67.7796   -4.5213 O   0  0  0  0  0  0  0  0  0  0  0  0
   18.5369   69.0221   -3.0867 C   0  0  1  0  0  0  0  0  0  0  0  0
   18.0995   68.6879   -4.4976 C   0  0  2  0  0  0  0  0  0  0  0  0
   19.2489   70.3550   -3.2817 C   0  0  1  0  0  0  0  0  0  0  0  0
   17.7269   70.0556   -5.0442 C   0  0  2  0  0  0  0  0  0  0  0  0
   16.9287   68.4118   -2.1170 H   0  0  0  0  0  0  0  0  0  0  0  0
   17.3044   66.9249   -4.1639 H   0  0  0  0  0  0  0  0  0  0  0  0
   15.9183   71.2719   -6.8407 O   0  0  0  0  0  0  0  0  0  0  0  0
   18.6251   70.3733  -10.4610 O   0  0  0  0  0  0  0  0  0  0  0  0
   17.9341   70.1539   -6.4616 N   0  0  0  0  0  0  0  0  0  0  0  0
   17.2676   70.8236   -8.6419 N   0  0  0  0  0  0  0  0  0  0  0  0
   16.9634   70.7834   -7.2752 C   0  0  0  0  0  0  0  0  0  0  0  0
   19.0894   69.6298   -7.0311 C   0  0  0  0  0  0  0  0  0  0  0  0
   19.3639   69.6751   -8.3364 C   0  0  0  0  0  0  0  0  0  0  0  0
   18.4016   70.3158   -9.2558 C   0  0  0  0  0  0  0  0  0  0  0  0
   16.6057   71.2571   -9.2282 H   0  0  0  0  0  0  0  0  0  0  0  0
   22.0631   73.4677   -3.2301 O   0  0  0  0  0  0  0  0  0  0  0  0
   20.7972   73.8349   -2.2944 P   0  0  2  0  0  0  0  0  0  0  0  0
   21.0569   75.3849   -1.9103 O   0  0  0  0  0  0  0  0  0  0  0  0
   20.6208   72.9254   -1.1131 O   0  0  0  0  0  0  0  0  0  0  0  0
   19.5391   73.8706   -3.3048 O   0  0  0  0  0  0  0  0  0  0  0  0
   20.1481   75.4585   -4.9554 O   0  0  0  0  0  0  0  0  0  0  0  0
   16.4594   74.3451   -6.4402 O   0  0  0  0  0  0  0  0  0  0  0  0
   18.8474   73.4787   -7.7798 O   0  0  0  0  0  0  0  0  0  0  0  0
   16.8462   74.6094   -3.5836 O   0  0  0  0  0  0  0  0  0  0  0  0
   17.7134   74.1453   -5.7822 C   0  0  1  0  0  0  0  0  0  0  0  0
   18.8322   74.4833   -6.7695 C   0  0  1  0  0  0  0  0  0  0  0  0
   17.7847   75.0547   -4.5569 C   0  0  2  0  0  0  0  0  0  0  0  0
   20.1928   74.5512   -6.0630 C   0  0  1  0  0  0  0  0  0  0  0  0
   19.1926   75.0882   -3.9596 C   0  0  1  0  0  0  0  0  0  0  0  0
   16.4075   73.7702   -7.2188 H   0  0  0  0  0  0  0  0  0  0  0  0
   17.9824   73.4458   -8.2179 H   0  0  0  0  0  0  0  0  0  0  0  0
   15.9590   74.5929   -3.9739 H   0  0  0  0  0  0  0  0  0  0  0  0
   20.7432   75.9842   -7.8939 O   0  0  0  0  0  0  0  0  0  0  0  0
   21.2981   75.0406   -6.9962 C   0  0  0  0  0  0  0  0  0  0  0  0
   21.4354   76.3046   -8.4939 H   0  0  0  0  0  0  0  0  0  0  0  0
 25 28  1  0
 25 24  1  0
 25 26  1  1
 25 27  2  0
  1  4  1  0
  1 24  1  0
  1  2  1  6
  1  3  2  0
  6 11  1  0
  6 12  1  0
 29 36  1  0
 29 37  1  0
  9  7  1  1
  7 13  1  0
 10  8  1  1
  8 14  1  0
 37 28  1  6
  4  5  1  0
 33 30  1  6
 30 38  1  0
 34 31  1  6
 31 39  1  0
 35 32  1  1
 32 40  1  0
 41 42  1  0
 41 43  1  0
 15 19  2  0
 16 22  2  0
 12 17  1  6
 17 19  1  0
 17 20  1  0
 18 19  1  0
 18 22  1  0
 18 23  1  0
  9 10  1  0
  9 11  1  0
 10 12  1  0
 11  5  1  6
 33 34  1  0
 33 35  1  0
 34 36  1  0
 35 37  1  0
 36 42  1  6
 20 21  2  0
 21 22  1  0
M  CHG  2   2  -1  26  -1
M  END
>  <COMPND>  (51) 
    8629 

>  <AUTHOR>  (51) 
    GENERATED BY OPEN BABEL 3.1.1

>  <MASTER>  (51) 
        0    0    0    0    0    0    0    0   58    0   58    0

>  <minimizedAffinity>  (51) 
-6.72317

>  <CNNscore>  (51) 
0.4175496101

>  <CNNaffinity>  (51) 
4.0430407524

>  <CNN_VS>  (51) 
1.6881700754

>  <CNNaffinity_variance>  (51) 
0.5806418657

$$$$
52
     RDKit          3D

 43 45  0  0  0  0  0  0  0  0999 V2000
   17.2964   70.0059   -2.0994 P   0  0  2  0  0  0  0  0  0  0  0  0
   15.9787   69.0733   -2.2054 O   0  0  0  0  0  0  0  0  0  0  0  0
   18.4577   69.3830   -1.3820 O   0  0  0  0  0  0  0  0  0  0  0  0
   16.7428   71.3903   -1.4709 O   0  0  0  0  0  0  0  0  0  0  0  0
   17.5738   72.5368   -1.5240 C   0  0  0  0  0  0  0  0  0  0  0  0
   19.2754   72.0425    0.0989 O   0  0  0  0  0  0  0  0  0  0  0  0
   18.4642   74.5932    1.4504 O   0  0  0  0  0  0  0  0  0  0  0  0
   20.7222   75.3242    0.1073 O   0  0  0  0  0  0  0  0  0  0  0  0
   18.5227   74.2891    0.0577 C   0  0  1  0  0  0  0  0  0  0  0  0
   19.9619   74.2524   -0.4124 C   0  0  2  0  0  0  0  0  0  0  0  0
   18.0915   72.8392   -0.1245 C   0  0  1  0  0  0  0  0  0  0  0  0
   20.4274   72.9013    0.1032 C   0  0  2  0  0  0  0  0  0  0  0  0
   18.7350   75.5144    1.5917 H   0  0  0  0  0  0  0  0  0  0  0  0
   20.3875   76.1614   -0.2501 H   0  0  0  0  0  0  0  0  0  0  0  0
   23.0697   72.3770    0.9524 O   0  0  0  0  0  0  0  0  0  0  0  0
   24.2486   70.6699   -3.1631 O   0  0  0  0  0  0  0  0  0  0  0  0
   21.4455   72.3199   -0.7256 N   0  0  0  0  0  0  0  0  0  0  0  0
   23.6545   71.5273   -1.0974 N   0  0  0  0  0  0  0  0  0  0  0  0
   22.7410   72.0990   -0.2027 C   0  0  0  0  0  0  0  0  0  0  0  0
   21.1549   71.9751   -2.0411 C   0  0  0  0  0  0  0  0  0  0  0  0
   22.0378   71.4320   -2.8818 C   0  0  0  0  0  0  0  0  0  0  0  0
   23.4139   71.1683   -2.4142 C   0  0  0  0  0  0  0  0  0  0  0  0
   24.5635   71.3645   -0.7553 H   0  0  0  0  0  0  0  0  0  0  0  0
   17.5891   70.3978   -3.6401 O   0  0  0  0  0  0  0  0  0  0  0  0
   18.3980   69.6140   -4.7995 P   0  0  2  0  0  0  0  0  0  0  0  0
   17.4415   68.3521   -5.1311 O   0  0  0  0  0  0  0  0  0  0  0  0
   19.8043   69.2439   -4.4261 O   0  0  0  0  0  0  0  0  0  0  0  0
   18.2793   70.5674   -6.0964 O   0  0  0  0  0  0  0  0  0  0  0  0
   16.0288   70.9964   -6.7030 O   0  0  0  0  0  0  0  0  0  0  0  0
   17.9149   72.5187  -10.0460 O   0  0  0  0  0  0  0  0  0  0  0  0
   16.7278   74.3157   -8.1461 O   0  0  0  0  0  0  0  0  0  0  0  0
   18.9217   70.1129   -8.7900 O   0  0  0  0  0  0  0  0  0  0  0  0
   17.7676   72.2226   -8.6547 C   0  0  1  0  0  0  0  0  0  0  0  0
   16.4971   72.9096   -8.1500 C   0  0  1  0  0  0  0  0  0  0  0  0
   17.6682   70.7090   -8.4743 C   0  0  2  0  0  0  0  0  0  0  0  0
   16.1273   72.4249   -6.7417 C   0  0  1  0  0  0  0  0  0  0  0  0
   17.2471   70.3361   -7.0517 C   0  0  1  0  0  0  0  0  0  0  0  0
   17.9791   73.4782  -10.1674 H   0  0  0  0  0  0  0  0  0  0  0  0
   16.9609   74.6088   -9.0411 H   0  0  0  0  0  0  0  0  0  0  0  0
   19.1770   70.3562   -9.6931 H   0  0  0  0  0  0  0  0  0  0  0  0
   14.5211   72.5008   -4.9744 O   0  0  0  0  0  0  0  0  0  0  0  0
   14.7799   72.9775   -6.2821 C   0  0  0  0  0  0  0  0  0  0  0  0
   13.6667   72.8448   -4.6687 H   0  0  0  0  0  0  0  0  0  0  0  0
 25 28  1  0
 25 24  1  0
 25 26  1  6
 25 27  2  0
  1  4  1  0
  1 24  1  0
  1  2  1  6
  1  3  2  0
  6 11  1  0
  6 12  1  0
 29 36  1  0
 29 37  1  0
  9  7  1  1
  7 13  1  0
 10  8  1  1
  8 14  1  0
 37 28  1  1
  4  5  1  0
 33 30  1  6
 30 38  1  0
 34 31  1  1
 31 39  1  0
 35 32  1  1
 32 40  1  0
 41 42  1  0
 41 43  1  0
 15 19  2  0
 16 22  2  0
 12 17  1  6
 17 19  1  0
 17 20  1  0
 18 19  1  0
 18 22  1  0
 18 23  1  0
  9 10  1  0
  9 11  1  0
 10 12  1  0
 11  5  1  6
 33 34  1  0
 33 35  1  0
 34 36  1  0
 35 37  1  0
 36 42  1  6
 20 21  2  0
 21 22  1  0
M  CHG  2   2  -1  26  -1
M  END
>  <COMPND>  (52) 
    8629 

>  <AUTHOR>  (52) 
    GENERATED BY OPEN BABEL 3.1.1

>  <MASTER>  (52) 
        0    0    0    0    0    0    0    0   58    0   58    0

>  <minimizedAffinity>  (52) 
-7.96903

>  <CNNscore>  (52) 
0.4125094414

>  <CNNaffinity>  (52) 
3.9215340614

>  <CNN_VS>  (52) 
1.6176698208

>  <CNNaffinity_variance>  (52) 
0.5331509709

$$$$
53
     RDKit          3D

 43 45  0  0  0  0  0  0  0  0999 V2000
   22.4449   71.3483   -1.8859 P   0  0  2  0  0  0  0  0  0  0  0  0
   23.7898   70.6495   -2.4521 O   0  0  0  0  0  0  0  0  0  0  0  0
   21.8380   70.6776   -0.6887 O   0  0  0  0  0  0  0  0  0  0  0  0
   21.4896   71.4628   -3.1867 O   0  0  0  0  0  0  0  0  0  0  0  0
   20.7908   70.3074   -3.6162 C   0  0  0  0  0  0  0  0  0  0  0  0
   18.6229   71.0559   -4.3331 O   0  0  0  0  0  0  0  0  0  0  0  0
   17.5110   69.3308   -2.1471 O   0  0  0  0  0  0  0  0  0  0  0  0
   17.1176   67.8008   -4.3700 O   0  0  0  0  0  0  0  0  0  0  0  0
   18.6386   69.1030   -2.9908 C   0  0  1  0  0  0  0  0  0  0  0  0
   18.1843   68.7275   -4.3859 C   0  0  2  0  0  0  0  0  0  0  0  0
   19.3244   70.4425   -3.2295 C   0  0  1  0  0  0  0  0  0  0  0  0
   17.7795   70.0751   -4.9588 C   0  0  2  0  0  0  0  0  0  0  0  0
   17.0570   68.4894   -1.9803 H   0  0  0  0  0  0  0  0  0  0  0  0
   17.4251   66.9600   -3.9970 H   0  0  0  0  0  0  0  0  0  0  0  0
   15.9994   71.3585   -6.7370 O   0  0  0  0  0  0  0  0  0  0  0  0
   18.5804   70.2694  -10.3967 O   0  0  0  0  0  0  0  0  0  0  0  0
   17.9620   70.1425   -6.3814 N   0  0  0  0  0  0  0  0  0  0  0  0
   17.2861   70.8153   -8.5578 N   0  0  0  0  0  0  0  0  0  0  0  0
   17.0086   70.8103   -7.1848 C   0  0  0  0  0  0  0  0  0  0  0  0
   19.0766   69.5510   -6.9658 C   0  0  0  0  0  0  0  0  0  0  0  0
   19.3260   69.5636   -8.2769 C   0  0  0  0  0  0  0  0  0  0  0  0
   18.3793   70.2405   -9.1865 C   0  0  0  0  0  0  0  0  0  0  0  0
   16.6355   71.2744   -9.1372 H   0  0  0  0  0  0  0  0  0  0  0  0
   22.9065   72.8775   -1.6384 O   0  0  0  0  0  0  0  0  0  0  0  0
   22.4003   74.2603   -2.3051 P   0  0  2  0  0  0  0  0  0  0  0  0
   23.3836   75.3680   -1.6541 O   0  0  0  0  0  0  0  0  0  0  0  0
   20.9381   74.5388   -2.1093 O   0  0  0  0  0  0  0  0  0  0  0  0
   22.8617   74.1626   -3.8487 O   0  0  0  0  0  0  0  0  0  0  0  0
   23.1295   75.5920   -5.7199 O   0  0  0  0  0  0  0  0  0  0  0  0
   20.8225   72.6455   -7.4654 O   0  0  0  0  0  0  0  0  0  0  0  0
   23.6078   72.8486   -8.1352 O   0  0  0  0  0  0  0  0  0  0  0  0
   20.2929   73.4702   -4.7416 O   0  0  0  0  0  0  0  0  0  0  0  0
   21.8178   73.1686   -6.5815 C   0  0  1  0  0  0  0  0  0  0  0  0
   22.8939   73.8561   -7.4242 C   0  0  1  0  0  0  0  0  0  0  0  0
   21.1634   74.1660   -5.6273 C   0  0  2  0  0  0  0  0  0  0  0  0
   23.8521   74.6690   -6.5432 C   0  0  1  0  0  0  0  0  0  0  0  0
   22.2059   74.9562   -4.8342 C   0  0  1  0  0  0  0  0  0  0  0  0
   21.2314   72.0112   -8.0736 H   0  0  0  0  0  0  0  0  0  0  0  0
   22.9913   72.3423   -8.6873 H   0  0  0  0  0  0  0  0  0  0  0  0
   19.6376   72.9742   -5.2558 H   0  0  0  0  0  0  0  0  0  0  0  0
   25.7811   74.6062   -7.9516 O   0  0  0  0  0  0  0  0  0  0  0  0
   24.8367   75.4888   -7.3742 C   0  0  0  0  0  0  0  0  0  0  0  0
   26.4141   75.1140   -8.4837 H   0  0  0  0  0  0  0  0  0  0  0  0
 25 28  1  0
 25 24  1  0
 25 26  1  1
 25 27  2  0
  1  4  1  0
  1 24  1  0
  1  2  1  6
  1  3  2  0
  6 11  1  0
  6 12  1  0
 29 36  1  0
 29 37  1  0
  9  7  1  1
  7 13  1  0
 10  8  1  1
  8 14  1  0
 37 28  1  1
  4  5  1  0
 33 30  1  6
 30 38  1  0
 34 31  1  1
 31 39  1  0
 35 32  1  1
 32 40  1  0
 41 42  1  0
 41 43  1  0
 15 19  2  0
 16 22  2  0
 12 17  1  6
 17 19  1  0
 17 20  1  0
 18 19  1  0
 18 22  1  0
 18 23  1  0
  9 10  1  0
  9 11  1  0
 10 12  1  0
 11  5  1  6
 33 34  1  0
 33 35  1  0
 34 36  1  0
 35 37  1  0
 36 42  1  6
 20 21  2  0
 21 22  1  0
M  CHG  2   2  -1  26  -1
M  END
>  <COMPND>  (53) 
    8629 

>  <AUTHOR>  (53) 
    GENERATED BY OPEN BABEL 3.1.1

>  <MASTER>  (53) 
        0    0    0    0    0    0    0    0   58    0   58    0

>  <minimizedAffinity>  (53) 
-7.81644

>  <CNNscore>  (53) 
0.4069215357

>  <CNNaffinity>  (53) 
4.1688690186

>  <CNN_VS>  (53) 
1.6964025497

>  <CNNaffinity_variance>  (53) 
0.6506751776

$$$$
54
     RDKit          3D

 43 45  0  0  0  0  0  0  0  0999 V2000
   19.8103   71.3770   -1.0419 P   0  0  2  0  0  0  0  0  0  0  0  0
   20.5348   69.9920   -0.6246 O   0  0  0  0  0  0  0  0  0  0  0  0
   18.4696   71.6069   -0.4086 O   0  0  0  0  0  0  0  0  0  0  0  0
   19.8284   71.3526   -2.6597 O   0  0  0  0  0  0  0  0  0  0  0  0
   19.3852   70.1817   -3.3232 C   0  0  0  0  0  0  0  0  0  0  0  0
   17.3762   70.7767   -4.4994 O   0  0  0  0  0  0  0  0  0  0  0  0
   15.9844   68.7749   -2.7540 O   0  0  0  0  0  0  0  0  0  0  0  0
   16.3003   67.4070   -5.0918 O   0  0  0  0  0  0  0  0  0  0  0  0
   17.2971   68.7282   -3.3107 C   0  0  1  0  0  0  0  0  0  0  0  0
   17.2289   68.4297   -4.7939 C   0  0  2  0  0  0  0  0  0  0  0  0
   17.8634   70.1425   -3.2966 C   0  0  1  0  0  0  0  0  0  0  0  0
   16.8202   69.7758   -5.3677 C   0  0  2  0  0  0  0  0  0  0  0  0
   15.6022   67.8828   -2.7521 H   0  0  0  0  0  0  0  0  0  0  0  0
   16.6048   66.5711   -4.7055 H   0  0  0  0  0  0  0  0  0  0  0  0
   15.5717   71.3971   -7.3146 O   0  0  0  0  0  0  0  0  0  0  0  0
   18.8389   70.4845  -10.4344 O   0  0  0  0  0  0  0  0  0  0  0  0
   17.3231   69.9800   -6.6969 N   0  0  0  0  0  0  0  0  0  0  0  0
   17.1996   70.9415   -8.8663 N   0  0  0  0  0  0  0  0  0  0  0  0
   16.6195   70.8129   -7.5979 C   0  0  0  0  0  0  0  0  0  0  0  0
   18.5015   69.3583   -7.0951 C   0  0  0  0  0  0  0  0  0  0  0  0
   19.0408   69.4902   -8.3087 C   0  0  0  0  0  0  0  0  0  0  0  0
   18.3683   70.3431   -9.3100 C   0  0  0  0  0  0  0  0  0  0  0  0
   16.7268   71.5166   -9.5109 H   0  0  0  0  0  0  0  0  0  0  0  0
   20.9240   72.4923   -0.6830 O   0  0  0  0  0  0  0  0  0  0  0  0
   22.5265   72.3740   -0.5069 P   0  0  2  0  0  0  0  0  0  0  0  0
   22.8514   70.8875   -1.0565 O   0  0  0  0  0  0  0  0  0  0  0  0
   23.0134   72.6385    0.8884 O   0  0  0  0  0  0  0  0  0  0  0  0
   23.1347   73.3646   -1.6266 O   0  0  0  0  0  0  0  0  0  0  0  0
   22.3896   75.3204   -2.7385 O   0  0  0  0  0  0  0  0  0  0  0  0
   23.8777   73.2436   -5.9824 O   0  0  0  0  0  0  0  0  0  0  0  0
   25.3060   75.5263   -4.9837 O   0  0  0  0  0  0  0  0  0  0  0  0
   22.4769   71.8287   -3.8812 O   0  0  0  0  0  0  0  0  0  0  0  0
   23.8356   73.6753   -4.6196 C   0  0  1  0  0  0  0  0  0  0  0  0
   23.9750   75.1987   -4.5946 C   0  0  1  0  0  0  0  0  0  0  0  0
   22.5062   73.2468   -4.0012 C   0  0  2  0  0  0  0  0  0  0  0  0
   23.6730   75.7598   -3.1985 C   0  0  1  0  0  0  0  0  0  0  0  0
   22.2821   73.8992   -2.6358 C   0  0  1  0  0  0  0  0  0  0  0  0
   24.7196   73.5121   -6.3808 H   0  0  0  0  0  0  0  0  0  0  0  0
   25.4840   75.1659   -5.8667 H   0  0  0  0  0  0  0  0  0  0  0  0
   22.6196   71.4276   -4.7522 H   0  0  0  0  0  0  0  0  0  0  0  0
   23.3841   77.7414   -4.5019 O   0  0  0  0  0  0  0  0  0  0  0  0
   23.6518   77.2867   -3.1881 C   0  0  0  0  0  0  0  0  0  0  0  0
   23.3673   78.7117   -4.5104 H   0  0  0  0  0  0  0  0  0  0  0  0
 25 28  1  0
 25 24  1  0
 25 26  1  6
 25 27  2  0
  1  4  1  0
  1 24  1  0
  1  2  1  1
  1  3  2  0
  6 11  1  0
  6 12  1  0
 29 36  1  0
 29 37  1  0
  9  7  1  6
  7 13  1  0
 10  8  1  1
  8 14  1  0
 37 28  1  1
  4  5  1  0
 33 30  1  6
 30 38  1  0
 34 31  1  1
 31 39  1  0
 35 32  1  1
 32 40  1  0
 41 42  1  0
 41 43  1  0
 15 19  2  0
 16 22  2  0
 12 17  1  6
 17 19  1  0
 17 20  1  0
 18 19  1  0
 18 22  1  0
 18 23  1  0
  9 10  1  0
  9 11  1  0
 10 12  1  0
 11  5  1  6
 33 34  1  0
 33 35  1  0
 34 36  1  0
 35 37  1  0
 36 42  1  6
 20 21  2  0
 21 22  1  0
M  CHG  2   2  -1  26  -1
M  END
>  <COMPND>  (54) 
    8629 

>  <AUTHOR>  (54) 
    GENERATED BY OPEN BABEL 3.1.1

>  <MASTER>  (54) 
        0    0    0    0    0    0    0    0   58    0   58    0

>  <minimizedAffinity>  (54) 
-7.43977

>  <CNNscore>  (54) 
0.3969307542

>  <CNNaffinity>  (54) 
4.4053950310

>  <CNN_VS>  (54) 
1.7486367226

>  <CNNaffinity_variance>  (54) 
0.1102075204

$$$$
55
     RDKit          3D

 43 45  0  0  0  0  0  0  0  0999 V2000
   23.0986   71.7442   -3.5539 P   0  0  2  0  0  0  0  0  0  0  0  0
   23.6866   72.5528   -4.8259 O   0  0  0  0  0  0  0  0  0  0  0  0
   23.8670   70.5121   -3.1759 O   0  0  0  0  0  0  0  0  0  0  0  0
   21.5409   71.5142   -3.9262 O   0  0  0  0  0  0  0  0  0  0  0  0
   20.9634   70.2468   -3.6651 C   0  0  0  0  0  0  0  0  0  0  0  0
   18.7887   71.0583   -4.2865 O   0  0  0  0  0  0  0  0  0  0  0  0
   17.7322   69.4191   -2.0089 O   0  0  0  0  0  0  0  0  0  0  0  0
   17.1707   67.8595   -4.1743 O   0  0  0  0  0  0  0  0  0  0  0  0
   18.8059   69.1337   -2.9039 C   0  0  1  0  0  0  0  0  0  0  0  0
   18.2668   68.7466   -4.2652 C   0  0  2  0  0  0  0  0  0  0  0  0
   19.5247   70.4425   -3.2069 C   0  0  1  0  0  0  0  0  0  0  0  0
   17.8802   70.0961   -4.8464 C   0  0  2  0  0  0  0  0  0  0  0  0
   17.2584   68.5981   -1.8004 H   0  0  0  0  0  0  0  0  0  0  0  0
   17.4676   67.0159   -3.7990 H   0  0  0  0  0  0  0  0  0  0  0  0
   15.9843   71.2886   -6.5672 O   0  0  0  0  0  0  0  0  0  0  0  0
   18.4077   70.1572  -10.3206 O   0  0  0  0  0  0  0  0  0  0  0  0
   17.9908   70.1280   -6.2775 N   0  0  0  0  0  0  0  0  0  0  0  0
   17.1926   70.7244   -8.4347 N   0  0  0  0  0  0  0  0  0  0  0  0
   16.9832   70.7512   -7.0500 C   0  0  0  0  0  0  0  0  0  0  0  0
   19.0893   69.5461   -6.9008 C   0  0  0  0  0  0  0  0  0  0  0  0
   19.2735   69.5279   -8.2225 C   0  0  0  0  0  0  0  0  0  0  0  0
   18.2671   70.1575   -9.1016 C   0  0  0  0  0  0  0  0  0  0  0  0
   16.5034   71.1523   -8.9930 H   0  0  0  0  0  0  0  0  0  0  0  0
   23.0336   72.8763   -2.4020 O   0  0  0  0  0  0  0  0  0  0  0  0
   22.4733   72.8181   -0.8869 P   0  0  2  0  0  0  0  0  0  0  0  0
   23.2132   74.0653   -0.1695 O   0  0  0  0  0  0  0  0  0  0  0  0
   22.6825   71.4978   -0.2037 O   0  0  0  0  0  0  0  0  0  0  0  0
   20.9292   73.2730   -1.0046 O   0  0  0  0  0  0  0  0  0  0  0  0
   20.0365   74.9146    0.4532 O   0  0  0  0  0  0  0  0  0  0  0  0
   16.5307   73.0269   -0.6407 O   0  0  0  0  0  0  0  0  0  0  0  0
   17.1099   75.6466   -1.6653 O   0  0  0  0  0  0  0  0  0  0  0  0
   18.9324   71.4714   -0.2033 O   0  0  0  0  0  0  0  0  0  0  0  0
   17.8549   73.5306   -0.8357 C   0  0  1  0  0  0  0  0  0  0  0  0
   17.8332   75.0417   -0.5970 C   0  0  1  0  0  0  0  0  0  0  0  0
   18.8000   72.8443    0.1488 C   0  0  2  0  0  0  0  0  0  0  0  0
   19.2563   75.6117   -0.5251 C   0  0  1  0  0  0  0  0  0  0  0  0
   20.1726   73.5190    0.1779 C   0  0  1  0  0  0  0  0  0  0  0  0
   15.9257   73.4583   -1.2632 H   0  0  0  0  0  0  0  0  0  0  0  0
   16.2133   75.2777   -1.7000 H   0  0  0  0  0  0  0  0  0  0  0  0
   18.0568   71.0555   -0.2179 H   0  0  0  0  0  0  0  0  0  0  0  0
   18.0359   77.3862    0.5096 O   0  0  0  0  0  0  0  0  0  0  0  0
   19.2622   77.0872   -0.1316 C   0  0  0  0  0  0  0  0  0  0  0  0
   18.0256   78.3221    0.7660 H   0  0  0  0  0  0  0  0  0  0  0  0
 25 28  1  0
 25 24  1  0
 25 26  1  1
 25 27  2  0
  1  4  1  0
  1 24  1  0
  1  2  1  6
  1  3  2  0
  6 11  1  0
  6 12  1  0
 29 36  1  0
 29 37  1  0
  9  7  1  1
  7 13  1  0
 10  8  1  1
  8 14  1  0
 37 28  1  6
  4  5  1  0
 33 30  1  1
 30 38  1  0
 34 31  1  6
 31 39  1  0
 35 32  1  6
 32 40  1  0
 41 42  1  0
 41 43  1  0
 15 19  2  0
 16 22  2  0
 12 17  1  6
 17 19  1  0
 17 20  1  0
 18 19  1  0
 18 22  1  0
 18 23  1  0
  9 10  1  0
  9 11  1  0
 10 12  1  0
 11  5  1  6
 33 34  1  0
 33 35  1  0
 34 36  1  0
 35 37  1  0
 36 42  1  1
 20 21  2  0
 21 22  1  0
M  CHG  2   2  -1  26  -1
M  END
>  <COMPND>  (55) 
    8629 

>  <AUTHOR>  (55) 
    GENERATED BY OPEN BABEL 3.1.1

>  <MASTER>  (55) 
        0    0    0    0    0    0    0    0   58    0   58    0

>  <minimizedAffinity>  (55) 
-7.69015

>  <CNNscore>  (55) 
0.3855495453

>  <CNNaffinity>  (55) 
4.3503837585

>  <CNN_VS>  (55) 
1.6772885323

>  <CNNaffinity_variance>  (55) 
0.1039410084

$$$$
56
     RDKit          3D

 43 45  0  0  0  0  0  0  0  0999 V2000
   20.1876   70.8415   -1.6200 P   0  0  2  0  0  0  0  0  0  0  0  0
   21.5080   70.3939   -0.7992 O   0  0  0  0  0  0  0  0  0  0  0  0
   19.4762   72.0425   -1.0698 O   0  0  0  0  0  0  0  0  0  0  0  0
   19.3094   69.4857   -1.7121 O   0  0  0  0  0  0  0  0  0  0  0  0
   19.2851   68.7779   -2.9394 C   0  0  0  0  0  0  0  0  0  0  0  0
   16.9590   68.9515   -2.3624 O   0  0  0  0  0  0  0  0  0  0  0  0
   16.4279   67.2359   -4.7635 O   0  0  0  0  0  0  0  0  0  0  0  0
   15.8290   69.7355   -5.6747 O   0  0  0  0  0  0  0  0  0  0  0  0
   17.4134   68.2511   -4.5802 C   0  0  1  0  0  0  0  0  0  0  0  0
   16.7713   69.6219   -4.6278 C   0  0  2  0  0  0  0  0  0  0  0  0
   17.9001   68.1777   -3.1383 C   0  0  1  0  0  0  0  0  0  0  0  0
   16.1321   69.7183   -3.2529 C   0  0  2  0  0  0  0  0  0  0  0  0
   16.1023   67.2629   -5.6774 H   0  0  0  0  0  0  0  0  0  0  0  0
   16.2843   69.6680   -6.5284 H   0  0  0  0  0  0  0  0  0  0  0  0
   14.4239   70.5913   -1.1798 O   0  0  0  0  0  0  0  0  0  0  0  0
   15.9448   74.9298   -1.5050 O   0  0  0  0  0  0  0  0  0  0  0  0
   16.0614   71.0705   -2.7754 N   0  0  0  0  0  0  0  0  0  0  0  0
   15.1827   72.7508   -1.3433 N   0  0  0  0  0  0  0  0  0  0  0  0
   15.1690   71.4046   -1.7301 C   0  0  0  0  0  0  0  0  0  0  0  0
   16.8713   72.0487   -3.3419 C   0  0  0  0  0  0  0  0  0  0  0  0
   16.8714   73.3283   -2.9625 C   0  0  0  0  0  0  0  0  0  0  0  0
   15.9681   73.7604   -1.8765 C   0  0  0  0  0  0  0  0  0  0  0  0
   14.5688   73.0069   -0.6170 H   0  0  0  0  0  0  0  0  0  0  0  0
   20.7404   71.0195   -3.1286 O   0  0  0  0  0  0  0  0  0  0  0  0
   20.6948   72.2849   -4.1334 P   0  0  2  0  0  0  0  0  0  0  0  0
   22.1724   72.2890   -4.7922 O   0  0  0  0  0  0  0  0  0  0  0  0
   20.3056   73.5779   -3.4773 O   0  0  0  0  0  0  0  0  0  0  0  0
   19.7162   71.8210   -5.3302 O   0  0  0  0  0  0  0  0  0  0  0  0
   19.8699   71.4417   -7.6645 O   0  0  0  0  0  0  0  0  0  0  0  0
   16.4896   73.8124   -7.6025 O   0  0  0  0  0  0  0  0  0  0  0  0
   16.2413   71.0028   -8.1432 O   0  0  0  0  0  0  0  0  0  0  0  0
   18.6900   74.3881   -5.8120 O   0  0  0  0  0  0  0  0  0  0  0  0
   17.3966   72.8233   -7.1081 C   0  0  1  0  0  0  0  0  0  0  0  0
   17.4859   71.6964   -8.1390 C   0  0  1  0  0  0  0  0  0  0  0  0
   18.7661   73.4650   -6.8930 C   0  0  2  0  0  0  0  0  0  0  0  0
   18.6336   70.7328   -7.8084 C   0  0  1  0  0  0  0  0  0  0  0  0
   19.8448   72.4156   -6.6191 C   0  0  1  0  0  0  0  0  0  0  0  0
   15.6179   73.4115   -7.7408 H   0  0  0  0  0  0  0  0  0  0  0  0
   15.5250   71.6226   -8.3528 H   0  0  0  0  0  0  0  0  0  0  0  0
   18.0039   75.0474   -5.9975 H   0  0  0  0  0  0  0  0  0  0  0  0
   18.1119   70.0955  -10.0513 O   0  0  0  0  0  0  0  0  0  0  0  0
   18.8412   69.6924   -8.9068 C   0  0  0  0  0  0  0  0  0  0  0  0
   18.2349   69.4428  -10.7588 H   0  0  0  0  0  0  0  0  0  0  0  0
 25 28  1  0
 25 24  1  0
 25 26  1  6
 25 27  2  0
  1  4  1  0
  1 24  1  0
  1  2  1  1
  1  3  2  0
  6 11  1  0
  6 12  1  0
 29 36  1  0
 29 37  1  0
  9  7  1  1
  7 13  1  0
 10  8  1  6
  8 14  1  0
 37 28  1  1
  4  5  1  0
 33 30  1  6
 30 38  1  0
 34 31  1  1
 31 39  1  0
 35 32  1  1
 32 40  1  0
 41 42  1  0
 41 43  1  0
 15 19  2  0
 16 22  2  0
 12 17  1  1
 17 19  1  0
 17 20  1  0
 18 19  1  0
 18 22  1  0
 18 23  1  0
  9 10  1  0
  9 11  1  0
 10 12  1  0
 11  5  1  6
 33 34  1  0
 33 35  1  0
 34 36  1  0
 35 37  1  0
 36 42  1  6
 20 21  2  0
 21 22  1  0
M  CHG  2   2  -1  26  -1
M  END
>  <COMPND>  (56) 
    8629 

>  <AUTHOR>  (56) 
    GENERATED BY OPEN BABEL 3.1.1

>  <MASTER>  (56) 
        0    0    0    0    0    0    0    0   58    0   58    0

>  <minimizedAffinity>  (56) 
-6.93336

>  <CNNscore>  (56) 
0.3855142593

>  <CNNaffinity>  (56) 
4.0687150955

>  <CNN_VS>  (56) 
1.5685477257

>  <CNNaffinity_variance>  (56) 
0.5649495125

$$$$
57
     RDKit          3D

 43 45  0  0  0  0  0  0  0  0999 V2000
   22.5921   72.6726   -3.8689 P   0  0  2  0  0  0  0  0  0  0  0  0
   21.6226   73.9223   -4.2088 O   0  0  0  0  0  0  0  0  0  0  0  0
   23.6977   72.4412   -4.8565 O   0  0  0  0  0  0  0  0  0  0  0  0
   21.5710   71.4359   -3.6547 O   0  0  0  0  0  0  0  0  0  0  0  0
   20.2774   71.5203   -4.2268 C   0  0  0  0  0  0  0  0  0  0  0  0
   19.3381   69.3454   -4.6283 O   0  0  0  0  0  0  0  0  0  0  0  0
   19.6859   69.9398   -7.5466 O   0  0  0  0  0  0  0  0  0  0  0  0
   17.0296   70.4166   -7.1554 O   0  0  0  0  0  0  0  0  0  0  0  0
   19.3306   70.8211   -6.4825 C   0  0  1  0  0  0  0  0  0  0  0  0
   17.8990   70.5767   -6.0531 C   0  0  2  0  0  0  0  0  0  0  0  0
   20.1107   70.3994   -5.2436 C   0  0  1  0  0  0  0  0  0  0  0  0
   18.0307   69.3106   -5.2237 C   0  0  2  0  0  0  0  0  0  0  0  0
   19.2004   70.1897   -8.3489 H   0  0  0  0  0  0  0  0  0  0  0  0
   16.9793   71.2487   -7.6512 H   0  0  0  0  0  0  0  0  0  0  0  0
   16.3494   67.0850   -4.7788 O   0  0  0  0  0  0  0  0  0  0  0  0
   14.2881   69.1266   -1.1977 O   0  0  0  0  0  0  0  0  0  0  0  0
   17.0458   69.2335   -4.1818 N   0  0  0  0  0  0  0  0  0  0  0  0
   15.3245   68.1033   -2.9960 N   0  0  0  0  0  0  0  0  0  0  0  0
   16.2522   68.0708   -4.0450 C   0  0  0  0  0  0  0  0  0  0  0  0
   16.8748   70.3027   -3.3093 C   0  0  0  0  0  0  0  0  0  0  0  0
   15.9848   70.3185   -2.3149 C   0  0  0  0  0  0  0  0  0  0  0  0
   15.1162   69.1427   -2.1032 C   0  0  0  0  0  0  0  0  0  0  0  0
   14.7603   67.3043   -2.8816 H   0  0  0  0  0  0  0  0  0  0  0  0
   23.0899   72.9971   -2.3656 O   0  0  0  0  0  0  0  0  0  0  0  0
   22.4631   72.5974   -0.9302 P   0  0  2  0  0  0  0  0  0  0  0  0
   23.2536   73.5611    0.1012 O   0  0  0  0  0  0  0  0  0  0  0  0
   22.5544   71.1346   -0.6048 O   0  0  0  0  0  0  0  0  0  0  0  0
   20.9593   73.1826   -0.9639 O   0  0  0  0  0  0  0  0  0  0  0  0
   20.1628   74.6287    0.7363 O   0  0  0  0  0  0  0  0  0  0  0  0
   16.5525   73.1522   -0.6189 O   0  0  0  0  0  0  0  0  0  0  0  0
   17.2953   75.8591   -1.2265 O   0  0  0  0  0  0  0  0  0  0  0  0
   18.8526   71.4037   -0.4419 O   0  0  0  0  0  0  0  0  0  0  0  0
   17.9059   73.5982   -0.7403 C   0  0  1  0  0  0  0  0  0  0  0  0
   17.9758   75.0522   -0.2693 C   0  0  1  0  0  0  0  0  0  0  0  0
   18.8031   72.7106    0.1203 C   0  0  2  0  0  0  0  0  0  0  0  0
   19.4308   75.5159   -0.1173 C   0  0  1  0  0  0  0  0  0  0  0  0
   20.2143   73.2873    0.2466 C   0  0  1  0  0  0  0  0  0  0  0  0
   15.9777   73.7114   -1.1634 H   0  0  0  0  0  0  0  0  0  0  0  0
   16.3780   75.5556   -1.3133 H   0  0  0  0  0  0  0  0  0  0  0  0
   17.9533   71.0495   -0.5163 H   0  0  0  0  0  0  0  0  0  0  0  0
   18.3205   77.1755    1.1950 O   0  0  0  0  0  0  0  0  0  0  0  0
   19.5254   76.9091    0.5010 C   0  0  0  0  0  0  0  0  0  0  0  0
   18.3665   78.0589    1.5940 H   0  0  0  0  0  0  0  0  0  0  0  0
 25 28  1  0
 25 24  1  0
 25 26  1  1
 25 27  2  0
  1  4  1  0
  1 24  1  0
  1  2  1  6
  1  3  2  0
  6 11  1  0
  6 12  1  0
 29 36  1  0
 29 37  1  0
  9  7  1  6
  7 13  1  0
 10  8  1  6
  8 14  1  0
 37 28  1  6
  4  5  1  0
 33 30  1  1
 30 38  1  0
 34 31  1  6
 31 39  1  0
 35 32  1  6
 32 40  1  0
 41 42  1  0
 41 43  1  0
 15 19  2  0
 16 22  2  0
 12 17  1  1
 17 19  1  0
 17 20  1  0
 18 19  1  0
 18 22  1  0
 18 23  1  0
  9 10  1  0
  9 11  1  0
 10 12  1  0
 11  5  1  1
 33 34  1  0
 33 35  1  0
 34 36  1  0
 35 37  1  0
 36 42  1  1
 20 21  2  0
 21 22  1  0
M  CHG  2   2  -1  26  -1
M  END
>  <COMPND>  (57) 
    8629 

>  <AUTHOR>  (57) 
    GENERATED BY OPEN BABEL 3.1.1

>  <MASTER>  (57) 
        0    0    0    0    0    0    0    0   58    0   58    0

>  <minimizedAffinity>  (57) 
-6.65269

>  <CNNscore>  (57) 
0.3498001993

>  <CNNaffinity>  (57) 
4.0821342468

>  <CNN_VS>  (57) 
1.4279314280

>  <CNNaffinity_variance>  (57) 
0.2445834130

$$$$
58
     RDKit          3D

 43 45  0  0  0  0  0  0  0  0999 V2000
   19.5746   74.0936   -6.2344 P   0  0  2  0  0  0  0  0  0  0  0  0
   18.7367   73.8524   -4.8717 O   0  0  0  0  0  0  0  0  0  0  0  0
   18.8781   74.9302   -7.2671 O   0  0  0  0  0  0  0  0  0  0  0  0
   19.9917   72.6021   -6.7031 O   0  0  0  0  0  0  0  0  0  0  0  0
   19.4909   71.4981   -5.9694 C   0  0  0  0  0  0  0  0  0  0  0  0
   18.3057   69.4172   -6.1671 O   0  0  0  0  0  0  0  0  0  0  0  0
   17.6120   70.2919   -8.9499 O   0  0  0  0  0  0  0  0  0  0  0  0
   15.3253   70.8377   -7.5679 O   0  0  0  0  0  0  0  0  0  0  0  0
   17.7373   71.0739   -7.7633 C   0  0  1  0  0  0  0  0  0  0  0  0
   16.5460   70.8473   -6.8561 C   0  0  2  0  0  0  0  0  0  0  0  0
   18.8800   70.4950   -6.9384 C   0  0  1  0  0  0  0  0  0  0  0  0
   16.8728   69.4986   -6.2377 C   0  0  2  0  0  0  0  0  0  0  0  0
   16.8884   70.6428   -9.4933 H   0  0  0  0  0  0  0  0  0  0  0  0
   15.1621   71.7176   -7.9420 H   0  0  0  0  0  0  0  0  0  0  0  0
   16.3693   67.0219   -4.9766 O   0  0  0  0  0  0  0  0  0  0  0  0
   14.7949   69.0759   -1.1630 O   0  0  0  0  0  0  0  0  0  0  0  0
   16.3319   69.3569   -4.9153 N   0  0  0  0  0  0  0  0  0  0  0  0
   15.5859   68.0467   -3.0787 N   0  0  0  0  0  0  0  0  0  0  0  0
   16.1163   68.0677   -4.3750 C   0  0  0  0  0  0  0  0  0  0  0  0
   16.0216   70.4883   -4.1686 C   0  0  0  0  0  0  0  0  0  0  0  0
   15.5153   70.4511   -2.9343 C   0  0  0  0  0  0  0  0  0  0  0  0
   15.2599   69.1434   -2.2966 C   0  0  0  0  0  0  0  0  0  0  0  0
   15.4269   67.1595   -2.6819 H   0  0  0  0  0  0  0  0  0  0  0  0
   20.9699   74.7096   -5.6990 O   0  0  0  0  0  0  0  0  0  0  0  0
   22.2490   74.0000   -5.0110 P   0  0  2  0  0  0  0  0  0  0  0  0
   23.3430   75.1901   -4.9457 O   0  0  0  0  0  0  0  0  0  0  0  0
   22.7211   72.7630   -5.7189 O   0  0  0  0  0  0  0  0  0  0  0  0
   21.8096   73.7656   -3.4758 O   0  0  0  0  0  0  0  0  0  0  0  0
   22.3474   71.5823   -2.7270 O   0  0  0  0  0  0  0  0  0  0  0  0
   20.0229   72.8172    0.4546 O   0  0  0  0  0  0  0  0  0  0  0  0
   22.8662   72.5815    0.7832 O   0  0  0  0  0  0  0  0  0  0  0  0
   19.2957   73.5722   -2.2437 O   0  0  0  0  0  0  0  0  0  0  0  0
   20.9633   72.9763   -0.6111 C   0  0  1  0  0  0  0  0  0  0  0  0
   22.1575   72.0599   -0.3375 C   0  0  1  0  0  0  0  0  0  0  0  0
   20.2903   72.6030   -1.9306 C   0  0  2  0  0  0  0  0  0  0  0  0
   23.0808   71.9732   -1.5603 C   0  0  1  0  0  0  0  0  0  0  0  0
   21.3040   72.4959   -3.0712 C   0  0  1  0  0  0  0  0  0  0  0  0
   20.4438   73.0531    1.2953 H   0  0  0  0  0  0  0  0  0  0  0  0
   22.2719   72.6315    1.5483 H   0  0  0  0  0  0  0  0  0  0  0  0
   18.6600   73.6302   -1.5141 H   0  0  0  0  0  0  0  0  0  0  0  0
   24.5373   70.4113   -2.6317 O   0  0  0  0  0  0  0  0  0  0  0  0
   24.1919   70.9437   -1.3662 C   0  0  0  0  0  0  0  0  0  0  0  0
   25.2437   69.7547   -2.5237 H   0  0  0  0  0  0  0  0  0  0  0  0
 25 28  1  0
 25 24  1  0
 25 26  1  1
 25 27  2  0
  1  4  1  0
  1 24  1  0
  1  2  1  1
  1  3  2  0
  6 11  1  0
  6 12  1  0
 29 36  1  0
 29 37  1  0
  9  7  1  6
  7 13  1  0
 10  8  1  6
  8 14  1  0
 37 28  1  1
  4  5  1  0
 33 30  1  1
 30 38  1  0
 34 31  1  1
 31 39  1  0
 35 32  1  6
 32 40  1  0
 41 42  1  0
 41 43  1  0
 15 19  2  0
 16 22  2  0
 12 17  1  1
 17 19  1  0
 17 20  1  0
 18 19  1  0
 18 22  1  0
 18 23  1  0
  9 10  1  0
  9 11  1  0
 10 12  1  0
 11  5  1  1
 33 34  1  0
 33 35  1  0
 34 36  1  0
 35 37  1  0
 36 42  1  1
 20 21  2  0
 21 22  1  0
M  CHG  2   2  -1  26  -1
M  END
>  <COMPND>  (58) 
    8629 

>  <AUTHOR>  (58) 
    GENERATED BY OPEN BABEL 3.1.1

>  <MASTER>  (58) 
        0    0    0    0    0    0    0    0   58    0   58    0

>  <minimizedAffinity>  (58) 
-6.99870

>  <CNNscore>  (58) 
0.3493660092

>  <CNNaffinity>  (58) 
4.0442614555

>  <CNN_VS>  (58) 
1.4129275084

>  <CNNaffinity_variance>  (58) 
0.4798592925

$$$$
59
     RDKit          3D

 43 45  0  0  0  0  0  0  0  0999 V2000
   22.0945   71.1671   -1.9032 P   0  0  2  0  0  0  0  0  0  0  0  0
   23.3438   70.7383   -2.8375 O   0  0  0  0  0  0  0  0  0  0  0  0
   22.4171   71.3233   -0.4462 O   0  0  0  0  0  0  0  0  0  0  0  0
   20.9526   70.0768   -2.2571 O   0  0  0  0  0  0  0  0  0  0  0  0
   20.2792   70.1820   -3.4994 C   0  0  0  0  0  0  0  0  0  0  0  0
   18.1603   70.8897   -4.3845 O   0  0  0  0  0  0  0  0  0  0  0  0
   16.9165   69.0348   -2.3837 O   0  0  0  0  0  0  0  0  0  0  0  0
   16.7854   67.5917   -4.6938 O   0  0  0  0  0  0  0  0  0  0  0  0
   18.1245   68.8814   -3.1270 C   0  0  1  0  0  0  0  0  0  0  0  0
   17.8142   68.5527   -4.5725 C   0  0  2  0  0  0  0  0  0  0  0  0
   18.7795   70.2519   -3.2460 C   0  0  1  0  0  0  0  0  0  0  0  0
   17.4146   69.9101   -5.1255 C   0  0  2  0  0  0  0  0  0  0  0  0
   16.4803   68.1725   -2.2943 H   0  0  0  0  0  0  0  0  0  0  0  0
   17.0880   66.7459   -4.3283 H   0  0  0  0  0  0  0  0  0  0  0  0
   15.8483   71.3621   -6.9739 O   0  0  0  0  0  0  0  0  0  0  0  0
   18.6991   70.3612  -10.4543 O   0  0  0  0  0  0  0  0  0  0  0  0
   17.7243   70.0459   -6.5208 N   0  0  0  0  0  0  0  0  0  0  0  0
   17.2691   70.8627   -8.7053 N   0  0  0  0  0  0  0  0  0  0  0  0
   16.8716   70.7959   -7.3639 C   0  0  0  0  0  0  0  0  0  0  0  0
   18.8629   69.4393   -7.0401 C   0  0  0  0  0  0  0  0  0  0  0  0
   19.2273   69.5115   -8.3220 C   0  0  0  0  0  0  0  0  0  0  0  0
   18.3909   70.2762   -9.2695 C   0  0  0  0  0  0  0  0  0  0  0  0
   16.6901   71.3796   -9.3114 H   0  0  0  0  0  0  0  0  0  0  0  0
   21.5492   72.5098   -2.6193 O   0  0  0  0  0  0  0  0  0  0  0  0
   21.9757   74.0583   -2.4367 P   0  0  2  0  0  0  0  0  0  0  0  0
   23.4832   73.9622   -1.8575 O   0  0  0  0  0  0  0  0  0  0  0  0
   21.0346   74.8593   -1.5843 O   0  0  0  0  0  0  0  0  0  0  0  0
   22.1520   74.6136   -3.9419 O   0  0  0  0  0  0  0  0  0  0  0  0
   20.7862   74.6002   -5.8787 O   0  0  0  0  0  0  0  0  0  0  0  0
   24.4022   73.6187   -7.6144 O   0  0  0  0  0  0  0  0  0  0  0  0
   23.2924   76.2344   -8.0322 O   0  0  0  0  0  0  0  0  0  0  0  0
   23.7059   72.5403   -5.0198 O   0  0  0  0  0  0  0  0  0  0  0  0
   23.5407   74.2763   -6.6812 C   0  0  1  0  0  0  0  0  0  0  0  0
   22.5609   75.1502   -7.4667 C   0  0  1  0  0  0  0  0  0  0  0  0
   22.7895   73.2238   -5.8680 C   0  0  2  0  0  0  0  0  0  0  0  0
   21.4396   75.6770   -6.5609 C   0  0  1  0  0  0  0  0  0  0  0  0
   21.6643   73.8469   -5.0399 C   0  0  1  0  0  0  0  0  0  0  0  0
   24.8825   74.2814   -8.1336 H   0  0  0  0  0  0  0  0  0  0  0  0
   23.9976   75.8881   -8.6014 H   0  0  0  0  0  0  0  0  0  0  0  0
   24.4131   72.1500   -5.5559 H   0  0  0  0  0  0  0  0  0  0  0  0
   19.3253   75.5109   -7.6614 O   0  0  0  0  0  0  0  0  0  0  0  0
   20.3660   76.4199   -7.3531 C   0  0  0  0  0  0  0  0  0  0  0  0
   18.6346   75.9700   -8.1653 H   0  0  0  0  0  0  0  0  0  0  0  0
 25 28  1  0
 25 24  1  0
 25 26  1  1
 25 27  2  0
  1  4  1  0
  1 24  1  0
  1  2  1  6
  1  3  2  0
  6 11  1  0
  6 12  1  0
 29 36  1  0
 29 37  1  0
  9  7  1  1
  7 13  1  0
 10  8  1  1
  8 14  1  0
 37 28  1  1
  4  5  1  0
 33 30  1  6
 30 38  1  0
 34 31  1  1
 31 39  1  0
 35 32  1  1
 32 40  1  0
 41 42  1  0
 41 43  1  0
 15 19  2  0
 16 22  2  0
 12 17  1  6
 17 19  1  0
 17 20  1  0
 18 19  1  0
 18 22  1  0
 18 23  1  0
  9 10  1  0
  9 11  1  0
 10 12  1  0
 11  5  1  6
 33 34  1  0
 33 35  1  0
 34 36  1  0
 35 37  1  0
 36 42  1  6
 20 21  2  0
 21 22  1  0
M  CHG  2   2  -1  26  -1
M  END
>  <COMPND>  (59) 
    8629 

>  <AUTHOR>  (59) 
    GENERATED BY OPEN BABEL 3.1.1

>  <MASTER>  (59) 
        0    0    0    0    0    0    0    0   58    0   58    0

>  <minimizedAffinity>  (59) 
-7.86538

>  <CNNscore>  (59) 
0.3370866179

>  <CNNaffinity>  (59) 
4.1780152321

>  <CNN_VS>  (59) 
1.4083529711

>  <CNNaffinity_variance>  (59) 
0.5468539000

$$$$
60
     RDKit          3D

 43 45  0  0  0  0  0  0  0  0999 V2000
   19.5033   69.4736   -2.6853 P   0  0  2  0  0  0  0  0  0  0  0  0
   18.7787   69.5941   -1.2438 O   0  0  0  0  0  0  0  0  0  0  0  0
   19.6944   68.0712   -3.1834 O   0  0  0  0  0  0  0  0  0  0  0  0
   20.8533   70.3491   -2.5158 O   0  0  0  0  0  0  0  0  0  0  0  0
   21.2558   70.7252   -1.2103 C   0  0  0  0  0  0  0  0  0  0  0  0
   20.6831   72.8807   -2.1046 O   0  0  0  0  0  0  0  0  0  0  0  0
   22.2067   74.0360    0.2051 O   0  0  0  0  0  0  0  0  0  0  0  0
   19.6155   74.2879    1.0167 O   0  0  0  0  0  0  0  0  0  0  0  0
   21.3909   72.8666    0.1570 C   0  0  1  0  0  0  0  0  0  0  0  0
   19.9262   73.2489    0.1108 C   0  0  2  0  0  0  0  0  0  0  0  0
   21.5913   72.2103   -1.2034 C   0  0  1  0  0  0  0  0  0  0  0  0
   19.7553   73.6673   -1.3396 C   0  0  2  0  0  0  0  0  0  0  0  0
   22.0958   74.4722    1.0650 H   0  0  0  0  0  0  0  0  0  0  0  0
   19.7396   73.9726    1.9255 H   0  0  0  0  0  0  0  0  0  0  0  0
   18.7711   74.5935   -3.8199 O   0  0  0  0  0  0  0  0  0  0  0  0
   14.6402   72.6795   -3.1032 O   0  0  0  0  0  0  0  0  0  0  0  0
   18.4265   73.4252   -1.8265 N   0  0  0  0  0  0  0  0  0  0  0  0
   16.7151   73.6396   -3.4611 N   0  0  0  0  0  0  0  0  0  0  0  0
   18.0316   73.9355   -3.0852 C   0  0  0  0  0  0  0  0  0  0  0  0
   17.5306   72.6889   -1.0590 C   0  0  0  0  0  0  0  0  0  0  0  0
   16.2782   72.4166   -1.4312 C   0  0  0  0  0  0  0  0  0  0  0  0
   15.7865   72.9130   -2.7327 C   0  0  0  0  0  0  0  0  0  0  0  0
   16.4178   73.9851   -4.3340 H   0  0  0  0  0  0  0  0  0  0  0  0
   18.5831   70.4048   -3.6336 O   0  0  0  0  0  0  0  0  0  0  0  0
   17.4995   70.0199   -4.7696 P   0  0  2  0  0  0  0  0  0  0  0  0
   16.1366   69.8049   -3.9247 O   0  0  0  0  0  0  0  0  0  0  0  0
   17.8913   68.8476   -5.6217 O   0  0  0  0  0  0  0  0  0  0  0  0
   17.2603   71.3908   -5.5872 O   0  0  0  0  0  0  0  0  0  0  0  0
   15.4138   72.6386   -6.3936 O   0  0  0  0  0  0  0  0  0  0  0  0
   17.7145   72.5742   -9.8219 O   0  0  0  0  0  0  0  0  0  0  0  0
   17.4686   75.0128   -8.3250 O   0  0  0  0  0  0  0  0  0  0  0  0
   17.5896   70.2340   -8.1226 O   0  0  0  0  0  0  0  0  0  0  0  0
   17.4779   72.6225   -8.4123 C   0  0  1  0  0  0  0  0  0  0  0  0
   16.6457   73.8699   -8.1082 C   0  0  1  0  0  0  0  0  0  0  0  0
   16.7294   71.3603   -7.9882 C   0  0  2  0  0  0  0  0  0  0  0  0
   16.1268   73.8511   -6.6641 C   0  0  1  0  0  0  0  0  0  0  0  0
   16.2137   71.4651   -6.5518 C   0  0  1  0  0  0  0  0  0  0  0  0
   18.1899   73.3726  -10.0976 H   0  0  0  0  0  0  0  0  0  0  0  0
   17.7900   75.0124   -9.2403 H   0  0  0  0  0  0  0  0  0  0  0  0
   17.9091   70.1785   -9.0363 H   0  0  0  0  0  0  0  0  0  0  0  0
   14.6509   75.4678   -7.6215 O   0  0  0  0  0  0  0  0  0  0  0  0
   15.1659   75.0051   -6.3866 C   0  0  0  0  0  0  0  0  0  0  0  0
   14.0373   76.2022   -7.4605 H   0  0  0  0  0  0  0  0  0  0  0  0
 25 28  1  0
 25 24  1  0
 25 26  1  1
 25 27  2  0
  1  4  1  0
  1 24  1  0
  1  2  1  1
  1  3  2  0
  6 11  1  0
  6 12  1  0
 29 36  1  0
 29 37  1  0
  9  7  1  6
  7 13  1  0
 10  8  1  1
  8 14  1  0
 37 28  1  1
  4  5  1  0
 33 30  1  6
 30 38  1  0
 34 31  1  1
 31 39  1  0
 35 32  1  1
 32 40  1  0
 41 42  1  0
 41 43  1  0
 15 19  2  0
 16 22  2  0
 12 17  1  6
 17 19  1  0
 17 20  1  0
 18 19  1  0
 18 22  1  0
 18 23  1  0
  9 10  1  0
  9 11  1  0
 10 12  1  0
 11  5  1  1
 33 34  1  0
 33 35  1  0
 34 36  1  0
 35 37  1  0
 36 42  1  6
 20 21  2  0
 21 22  1  0
M  CHG  2   2  -1  26  -1
M  END
>  <COMPND>  (60) 
    8629 

>  <AUTHOR>  (60) 
    GENERATED BY OPEN BABEL 3.1.1

>  <MASTER>  (60) 
        0    0    0    0    0    0    0    0   58    0   58    0

>  <minimizedAffinity>  (60) 
-6.57812

>  <CNNscore>  (60) 
0.3052870035

>  <CNNaffinity>  (60) 
3.7133469582

>  <CNN_VS>  (60) 
1.1336365938

>  <CNNaffinity_variance>  (60) 
0.2792228162

$$$$
61
     RDKit          3D

 43 45  0  0  0  0  0  0  0  0999 V2000
   22.9318   71.9881   -3.6315 P   0  0  2  0  0  0  0  0  0  0  0  0
   23.6704   70.6065   -3.2276 O   0  0  0  0  0  0  0  0  0  0  0  0
   22.7817   72.9770   -2.5130 O   0  0  0  0  0  0  0  0  0  0  0  0
   21.5552   71.5028   -4.3297 O   0  0  0  0  0  0  0  0  0  0  0  0
   20.7149   70.6101   -3.6194 C   0  0  0  0  0  0  0  0  0  0  0  0
   18.9452   71.9328   -4.5640 O   0  0  0  0  0  0  0  0  0  0  0  0
   17.2901   71.0505   -2.2245 O   0  0  0  0  0  0  0  0  0  0  0  0
   16.4062   69.4225   -4.2257 O   0  0  0  0  0  0  0  0  0  0  0  0
   18.2748   70.3242   -2.9582 C   0  0  1  0  0  0  0  0  0  0  0  0
   17.7278   69.9154   -4.3100 C   0  0  2  0  0  0  0  0  0  0  0  0
   19.3835   71.2954   -3.3442 C   0  0  1  0  0  0  0  0  0  0  0  0
   17.8186   71.2144   -5.0926 C   0  0  2  0  0  0  0  0  0  0  0  0
   16.5718   70.4510   -1.9667 H   0  0  0  0  0  0  0  0  0  0  0  0
   16.4010   68.5956   -3.7188 H   0  0  0  0  0  0  0  0  0  0  0  0
   15.7399   71.0003   -6.9929 O   0  0  0  0  0  0  0  0  0  0  0  0
   18.7195   70.3702  -10.4521 O   0  0  0  0  0  0  0  0  0  0  0  0
   18.0227   70.9948   -6.4967 N   0  0  0  0  0  0  0  0  0  0  0  0
   17.2252   70.6869   -8.7138 N   0  0  0  0  0  0  0  0  0  0  0  0
   16.9108   70.9015   -7.3658 C   0  0  0  0  0  0  0  0  0  0  0  0
   19.3139   70.8746   -6.9988 C   0  0  0  0  0  0  0  0  0  0  0  0
   19.5968   70.6688   -8.2868 C   0  0  0  0  0  0  0  0  0  0  0  0
   18.4920   70.5594   -9.2612 C   0  0  0  0  0  0  0  0  0  0  0  0
   16.4665   70.6182   -9.3379 H   0  0  0  0  0  0  0  0  0  0  0  0
   23.8077   72.5161   -4.8833 O   0  0  0  0  0  0  0  0  0  0  0  0
   23.4280   73.5094   -6.1007 P   0  0  2  0  0  0  0  0  0  0  0  0
   22.3820   74.5420   -5.4247 O   0  0  0  0  0  0  0  0  0  0  0  0
   22.9070   72.8122   -7.3240 O   0  0  0  0  0  0  0  0  0  0  0  0
   24.7625   74.3833   -6.3463 O   0  0  0  0  0  0  0  0  0  0  0  0
   24.0048   76.3201   -7.4826 O   0  0  0  0  0  0  0  0  0  0  0  0
   28.0245   77.2316   -7.2334 O   0  0  0  0  0  0  0  0  0  0  0  0
   26.1451   78.6456   -5.5852 O   0  0  0  0  0  0  0  0  0  0  0  0
   27.1907   74.5076   -7.7475 O   0  0  0  0  0  0  0  0  0  0  0  0
   26.7838   76.6783   -6.7863 C   0  0  1  0  0  0  0  0  0  0  0  0
   25.7640   77.8136   -6.6773 C   0  0  1  0  0  0  0  0  0  0  0  0
   26.3143   75.6285   -7.7917 C   0  0  2  0  0  0  0  0  0  0  0  0
   24.3464   77.2662   -6.4628 C   0  0  1  0  0  0  0  0  0  0  0  0
   24.8754   75.1875   -7.5175 C   0  0  1  0  0  0  0  0  0  0  0  0
   28.3284   77.8986   -6.5991 H   0  0  0  0  0  0  0  0  0  0  0  0
   27.0422   78.9843   -5.7328 H   0  0  0  0  0  0  0  0  0  0  0  0
   28.0983   74.7999   -7.9229 H   0  0  0  0  0  0  0  0  0  0  0  0
   23.2458   78.9996   -5.2409 O   0  0  0  0  0  0  0  0  0  0  0  0
   23.2935   78.3713   -6.5087 C   0  0  0  0  0  0  0  0  0  0  0  0
   22.5801   79.7055   -5.2554 H   0  0  0  0  0  0  0  0  0  0  0  0
 25 28  1  0
 25 24  1  0
 25 26  1  1
 25 27  2  0
  1  4  1  0
  1 24  1  0
  1  2  1  1
  1  3  2  0
  6 11  1  0
  6 12  1  0
 29 36  1  0
 29 37  1  0
  9  7  1  1
  7 13  1  0
 10  8  1  1
  8 14  1  0
 37 28  1  1
  4  5  1  0
 33 30  1  6
 30 38  1  0
 34 31  1  1
 31 39  1  0
 35 32  1  1
 32 40  1  0
 41 42  1  0
 41 43  1  0
 15 19  2  0
 16 22  2  0
 12 17  1  6
 17 19  1  0
 17 20  1  0
 18 19  1  0
 18 22  1  0
 18 23  1  0
  9 10  1  0
  9 11  1  0
 10 12  1  0
 11  5  1  6
 33 34  1  0
 33 35  1  0
 34 36  1  0
 35 37  1  0
 36 42  1  6
 20 21  2  0
 21 22  1  0
M  CHG  2   2  -1  26  -1
M  END
>  <COMPND>  (61) 
    8629 

>  <AUTHOR>  (61) 
    GENERATED BY OPEN BABEL 3.1.1

>  <MASTER>  (61) 
        0    0    0    0    0    0    0    0   58    0   58    0

>  <minimizedAffinity>  (61) 
-6.78878

>  <CNNscore>  (61) 
0.7439709306

>  <CNNaffinity>  (61) 
4.6342716217

>  <CNN_VS>  (61) 
3.4477634430

>  <CNNaffinity_variance>  (61) 
0.1094918996

$$$$
62
     RDKit          3D

 43 45  0  0  0  0  0  0  0  0999 V2000
   20.4729   70.5426   -1.5952 P   0  0  2  0  0  0  0  0  0  0  0  0
   20.1544   69.3074   -0.6001 O   0  0  0  0  0  0  0  0  0  0  0  0
   19.5966   71.7466   -1.4116 O   0  0  0  0  0  0  0  0  0  0  0  0
   20.4463   69.8721   -3.0675 O   0  0  0  0  0  0  0  0  0  0  0  0
   19.5722   68.7808   -3.2977 C   0  0  0  0  0  0  0  0  0  0  0  0
   17.8306   70.2088   -4.1352 O   0  0  0  0  0  0  0  0  0  0  0  0
   15.9335   68.5088   -2.5535 O   0  0  0  0  0  0  0  0  0  0  0  0
   15.6191   67.5506   -5.0872 O   0  0  0  0  0  0  0  0  0  0  0  0
   17.1137   68.1272   -3.2583 C   0  0  1  0  0  0  0  0  0  0  0  0
   16.8605   68.1361   -4.7514 C   0  0  2  0  0  0  0  0  0  0  0  0
   18.1358   69.2463   -3.1023 C   0  0  1  0  0  0  0  0  0  0  0  0
   16.9124   69.6205   -5.0710 C   0  0  2  0  0  0  0  0  0  0  0  0
   15.2660   67.8093   -2.6384 H   0  0  0  0  0  0  0  0  0  0  0  0
   15.6360   66.6066   -4.8651 H   0  0  0  0  0  0  0  0  0  0  0  0
   15.5820   71.2759   -6.9331 O   0  0  0  0  0  0  0  0  0  0  0  0
   18.7875   70.5332  -10.1602 O   0  0  0  0  0  0  0  0  0  0  0  0
   17.3772   69.8776   -6.4048 N   0  0  0  0  0  0  0  0  0  0  0  0
   17.1793   70.9049   -8.5383 N   0  0  0  0  0  0  0  0  0  0  0  0
   16.6342   70.7235   -7.2609 C   0  0  0  0  0  0  0  0  0  0  0  0
   18.5578   69.2943   -6.8518 C   0  0  0  0  0  0  0  0  0  0  0  0
   19.0634   69.4763   -8.0734 C   0  0  0  0  0  0  0  0  0  0  0  0
   18.3484   70.3460   -9.0297 C   0  0  0  0  0  0  0  0  0  0  0  0
   16.6786   71.4900   -9.1522 H   0  0  0  0  0  0  0  0  0  0  0  0
   22.0473   70.8123   -1.3473 O   0  0  0  0  0  0  0  0  0  0  0  0
   23.1153   71.7005   -2.1741 P   0  0  2  0  0  0  0  0  0  0  0  0
   24.3424   70.6744   -2.4167 O   0  0  0  0  0  0  0  0  0  0  0  0
   23.5047   72.9825   -1.4969 O   0  0  0  0  0  0  0  0  0  0  0  0
   22.4479   71.8897   -3.6314 O   0  0  0  0  0  0  0  0  0  0  0  0
   22.9916   74.0118   -4.5357 O   0  0  0  0  0  0  0  0  0  0  0  0
   20.2213   72.7886   -7.3428 O   0  0  0  0  0  0  0  0  0  0  0  0
   23.0073   72.8582   -8.0368 O   0  0  0  0  0  0  0  0  0  0  0  0
   19.8095   72.1734   -4.5443 O   0  0  0  0  0  0  0  0  0  0  0  0
   21.2815   72.6181   -6.3982 C   0  0  1  0  0  0  0  0  0  0  0  0
   22.4743   73.4580   -6.8593 C   0  0  1  0  0  0  0  0  0  0  0  0
   20.8020   73.0753   -5.0218 C   0  0  2  0  0  0  0  0  0  0  0  0
   23.5496   73.5394   -5.7674 C   0  0  1  0  0  0  0  0  0  0  0  0
   21.9574   73.1691   -4.0236 C   0  0  1  0  0  0  0  0  0  0  0  0
   20.5191   72.4997   -8.2188 H   0  0  0  0  0  0  0  0  0  0  0  0
   22.3181   72.8123   -8.7181 H   0  0  0  0  0  0  0  0  0  0  0  0
   19.0835   72.1231   -5.1848 H   0  0  0  0  0  0  0  0  0  0  0  0
   25.3574   73.9737   -7.2682 O   0  0  0  0  0  0  0  0  0  0  0  0
   24.6757   74.4996   -6.1443 C   0  0  0  0  0  0  0  0  0  0  0  0
   26.0768   74.5746   -7.5195 H   0  0  0  0  0  0  0  0  0  0  0  0
 25 28  1  0
 25 24  1  0
 25 26  1  6
 25 27  2  0
  1  4  1  0
  1 24  1  0
  1  2  1  1
  1  3  2  0
  6 11  1  0
  6 12  1  0
 29 36  1  0
 29 37  1  0
  9  7  1  1
  7 13  1  0
 10  8  1  1
  8 14  1  0
 37 28  1  6
  4  5  1  0
 33 30  1  6
 30 38  1  0
 34 31  1  6
 31 39  1  0
 35 32  1  1
 32 40  1  0
 41 42  1  0
 41 43  1  0
 15 19  2  0
 16 22  2  0
 12 17  1  6
 17 19  1  0
 17 20  1  0
 18 19  1  0
 18 22  1  0
 18 23  1  0
  9 10  1  0
  9 11  1  0
 10 12  1  0
 11  5  1  6
 33 34  1  0
 33 35  1  0
 34 36  1  0
 35 37  1  0
 36 42  1  6
 20 21  2  0
 21 22  1  0
M  CHG  2   2  -1  26  -1
M  END
>  <COMPND>  (62) 
    8629 

>  <AUTHOR>  (62) 
    GENERATED BY OPEN BABEL 3.1.1

>  <MASTER>  (62) 
        0    0    0    0    0    0    0    0   58    0   58    0

>  <minimizedAffinity>  (62) 
-8.66147

>  <CNNscore>  (62) 
0.6085998416

>  <CNNaffinity>  (62) 
4.4412488937

>  <CNN_VS>  (62) 
2.7029433250

>  <CNNaffinity_variance>  (62) 
0.7119645476

$$$$
63
     RDKit          3D

 43 45  0  0  0  0  0  0  0  0999 V2000
   21.4641   70.9800   -3.2878 P   0  0  2  0  0  0  0  0  0  0  0  0
   22.9462   70.3434   -3.4119 O   0  0  0  0  0  0  0  0  0  0  0  0
   21.0639   71.3884   -1.9005 O   0  0  0  0  0  0  0  0  0  0  0  0
   20.5099   69.8849   -4.0006 O   0  0  0  0  0  0  0  0  0  0  0  0
   19.8556   68.9267   -3.1873 C   0  0  0  0  0  0  0  0  0  0  0  0
   18.0584   70.3145   -3.9734 O   0  0  0  0  0  0  0  0  0  0  0  0
   16.2652   68.6530   -2.2372 O   0  0  0  0  0  0  0  0  0  0  0  0
   15.8220   67.6114   -4.7182 O   0  0  0  0  0  0  0  0  0  0  0  0
   17.4087   68.2573   -2.9929 C   0  0  1  0  0  0  0  0  0  0  0  0
   17.0747   68.2162   -4.4695 C   0  0  2  0  0  0  0  0  0  0  0  0
   18.4279   69.3880   -2.9287 C   0  0  1  0  0  0  0  0  0  0  0  0
   17.0960   69.6898   -4.8385 C   0  0  2  0  0  0  0  0  0  0  0  0
   15.6003   67.9465   -2.2632 H   0  0  0  0  0  0  0  0  0  0  0  0
   15.8593   66.6752   -4.4674 H   0  0  0  0  0  0  0  0  0  0  0  0
   15.6744   71.3087   -6.6651 O   0  0  0  0  0  0  0  0  0  0  0  0
   18.6824   70.4495  -10.0496 O   0  0  0  0  0  0  0  0  0  0  0  0
   17.4853   69.9072   -6.2032 N   0  0  0  0  0  0  0  0  0  0  0  0
   17.1734   70.8797   -8.3487 N   0  0  0  0  0  0  0  0  0  0  0  0
   16.7013   70.7375   -7.0377 C   0  0  0  0  0  0  0  0  0  0  0  0
   18.6333   69.3006   -6.7013 C   0  0  0  0  0  0  0  0  0  0  0  0
   19.0692   69.4453   -7.9544 C   0  0  0  0  0  0  0  0  0  0  0  0
   18.3076   70.2965   -8.8911 C   0  0  0  0  0  0  0  0  0  0  0  0
   16.6431   71.4533   -8.9483 H   0  0  0  0  0  0  0  0  0  0  0  0
   21.4962   72.1878   -4.3616 O   0  0  0  0  0  0  0  0  0  0  0  0
   22.5632   73.3813   -4.5854 P   0  0  2  0  0  0  0  0  0  0  0  0
   21.7946   74.3810   -5.5989 O   0  0  0  0  0  0  0  0  0  0  0  0
   23.9078   72.9217   -5.0699 O   0  0  0  0  0  0  0  0  0  0  0  0
   22.5934   74.1713   -3.1783 O   0  0  0  0  0  0  0  0  0  0  0  0
   20.3925   75.0132   -2.9259 O   0  0  0  0  0  0  0  0  0  0  0  0
   22.0353   76.3927    0.6024 O   0  0  0  0  0  0  0  0  0  0  0  0
   20.1678   74.2117    0.6652 O   0  0  0  0  0  0  0  0  0  0  0  0
   23.6085   76.4118   -1.8274 O   0  0  0  0  0  0  0  0  0  0  0  0
   21.8500   75.4721   -0.4762 C   0  0  1  0  0  0  0  0  0  0  0  0
   20.3858   75.0284   -0.4818 C   0  0  1  0  0  0  0  0  0  0  0  0
   22.2071   76.1642   -1.7902 C   0  0  2  0  0  0  0  0  0  0  0  0
   20.0468   74.2531   -1.7621 C   0  0  1  0  0  0  0  0  0  0  0  0
   21.7837   75.3307   -3.0010 C   0  0  1  0  0  0  0  0  0  0  0  0
   21.8107   75.9593    1.4398 H   0  0  0  0  0  0  0  0  0  0  0  0
   20.3860   74.7130    1.4667 H   0  0  0  0  0  0  0  0  0  0  0  0
   23.8639   76.9405   -1.0560 H   0  0  0  0  0  0  0  0  0  0  0  0
   18.3662   72.5657   -1.5688 O   0  0  0  0  0  0  0  0  0  0  0  0
   18.5559   73.9377   -1.8619 C   0  0  0  0  0  0  0  0  0  0  0  0
   17.4218   72.3505   -1.6282 H   0  0  0  0  0  0  0  0  0  0  0  0
 25 28  1  0
 25 24  1  0
 25 26  1  6
 25 27  2  0
  1  4  1  0
  1 24  1  0
  1  2  1  1
  1  3  2  0
  6 11  1  0
  6 12  1  0
 29 36  1  0
 29 37  1  0
  9  7  1  1
  7 13  1  0
 10  8  1  1
  8 14  1  0
 37 28  1  1
  4  5  1  0
 33 30  1  1
 30 38  1  0
 34 31  1  1
 31 39  1  0
 35 32  1  1
 32 40  1  0
 41 42  1  0
 41 43  1  0
 15 19  2  0
 16 22  2  0
 12 17  1  6
 17 19  1  0
 17 20  1  0
 18 19  1  0
 18 22  1  0
 18 23  1  0
  9 10  1  0
  9 11  1  0
 10 12  1  0
 11  5  1  6
 33 34  1  0
 33 35  1  0
 34 36  1  0
 35 37  1  0
 36 42  1  6
 20 21  2  0
 21 22  1  0
M  CHG  2   2  -1  26  -1
M  END
>  <COMPND>  (63) 
    8629 

>  <AUTHOR>  (63) 
    GENERATED BY OPEN BABEL 3.1.1

>  <MASTER>  (63) 
        0    0    0    0    0    0    0    0   58    0   58    0

>  <minimizedAffinity>  (63) 
-7.14581

>  <CNNscore>  (63) 
0.5514936447

>  <CNNaffinity>  (63) 
4.3490152359

>  <CNN_VS>  (63) 
2.3984541893

>  <CNNaffinity_variance>  (63) 
0.1800176948

$$$$
64
     RDKit          3D

 43 45  0  0  0  0  0  0  0  0999 V2000
   20.4600   70.3833   -1.7003 P   0  0  2  0  0  0  0  0  0  0  0  0
   20.9056   69.8843   -3.1734 O   0  0  0  0  0  0  0  0  0  0  0  0
   20.0387   69.2910   -0.7617 O   0  0  0  0  0  0  0  0  0  0  0  0
   19.3500   71.5229   -1.9955 O   0  0  0  0  0  0  0  0  0  0  0  0
   18.8554   71.6589   -3.3164 C   0  0  0  0  0  0  0  0  0  0  0  0
   16.8842   71.4595   -4.6759 O   0  0  0  0  0  0  0  0  0  0  0  0
   15.8878   69.5204   -2.6173 O   0  0  0  0  0  0  0  0  0  0  0  0
   16.7665   67.8756   -4.6070 O   0  0  0  0  0  0  0  0  0  0  0  0
   17.2163   69.7257   -3.0950 C   0  0  1  0  0  0  0  0  0  0  0  0
   17.3699   69.1476   -4.4864 C   0  0  2  0  0  0  0  0  0  0  0  0
   17.3988   71.2170   -3.3482 C   0  0  1  0  0  0  0  0  0  0  0  0
   16.6885   70.2016   -5.3425 C   0  0  2  0  0  0  0  0  0  0  0  0
   15.7477   68.5751   -2.4481 H   0  0  0  0  0  0  0  0  0  0  0  0
   17.2355   67.2403   -4.0439 H   0  0  0  0  0  0  0  0  0  0  0  0
   15.4465   71.4897   -7.5279 O   0  0  0  0  0  0  0  0  0  0  0  0
   18.9287   70.4427  -10.3597 O   0  0  0  0  0  0  0  0  0  0  0  0
   17.2484   70.2811   -6.6621 N   0  0  0  0  0  0  0  0  0  0  0  0
   17.1814   70.9675   -8.9361 N   0  0  0  0  0  0  0  0  0  0  0  0
   16.5431   70.9502   -7.6894 C   0  0  0  0  0  0  0  0  0  0  0  0
   18.4837   69.7000   -6.9270 C   0  0  0  0  0  0  0  0  0  0  0  0
   19.0782   69.7241   -8.1217 C   0  0  0  0  0  0  0  0  0  0  0  0
   18.4079   70.4033   -9.2492 C   0  0  0  0  0  0  0  0  0  0  0  0
   16.7085   71.4277   -9.6671 H   0  0  0  0  0  0  0  0  0  0  0  0
   21.7379   71.2403   -1.2049 O   0  0  0  0  0  0  0  0  0  0  0  0
   22.9244   71.9550   -2.0382 P   0  0  2  0  0  0  0  0  0  0  0  0
   23.7976   70.7074   -2.5845 O   0  0  0  0  0  0  0  0  0  0  0  0
   23.7099   72.9624   -1.2494 O   0  0  0  0  0  0  0  0  0  0  0  0
   22.1996   72.5514   -3.3512 O   0  0  0  0  0  0  0  0  0  0  0  0
   23.1524   73.7943   -5.1299 O   0  0  0  0  0  0  0  0  0  0  0  0
   19.4247   75.5663   -5.0094 O   0  0  0  0  0  0  0  0  0  0  0  0
   20.0861   73.8010   -7.1760 O   0  0  0  0  0  0  0  0  0  0  0  0
   20.7454   74.8124   -2.5463 O   0  0  0  0  0  0  0  0  0  0  0  0
   20.3595   74.4893   -4.9017 C   0  0  1  0  0  0  0  0  0  0  0  0
   21.0470   74.3137   -6.2572 C   0  0  1  0  0  0  0  0  0  0  0  0
   21.3836   74.8236   -3.8188 C   0  0  2  0  0  0  0  0  0  0  0  0
   22.2459   73.3616   -6.1510 C   0  0  1  0  0  0  0  0  0  0  0  0
   22.5588   73.8444   -3.8311 C   0  0  1  0  0  0  0  0  0  0  0  0
   18.7713   75.3602   -5.6951 H   0  0  0  0  0  0  0  0  0  0  0  0
   19.3341   74.4112   -7.2334 H   0  0  0  0  0  0  0  0  0  0  0  0
   20.0035   75.4365   -2.5513 H   0  0  0  0  0  0  0  0  0  0  0  0
   22.7370   74.4429   -8.2243 O   0  0  0  0  0  0  0  0  0  0  0  0
   23.0401   73.2947   -7.4536 C   0  0  0  0  0  0  0  0  0  0  0  0
   23.2357   74.4141   -9.0563 H   0  0  0  0  0  0  0  0  0  0  0  0
 25 28  1  0
 25 24  1  0
 25 26  1  6
 25 27  2  0
  1  4  1  0
  1 24  1  0
  1  2  1  6
  1  3  2  0
  6 11  1  0
  6 12  1  0
 29 36  1  0
 29 37  1  0
  9  7  1  6
  7 13  1  0
 10  8  1  1
  8 14  1  0
 37 28  1  6
  4  5  1  0
 33 30  1  6
 30 38  1  0
 34 31  1  6
 31 39  1  0
 35 32  1  1
 32 40  1  0
 41 42  1  0
 41 43  1  0
 15 19  2  0
 16 22  2  0
 12 17  1  6
 17 19  1  0
 17 20  1  0
 18 19  1  0
 18 22  1  0
 18 23  1  0
  9 10  1  0
  9 11  1  0
 10 12  1  0
 11  5  1  6
 33 34  1  0
 33 35  1  0
 34 36  1  0
 35 37  1  0
 36 42  1  6
 20 21  2  0
 21 22  1  0
M  CHG  2   2  -1  26  -1
M  END
>  <COMPND>  (64) 
    8629 

>  <AUTHOR>  (64) 
    GENERATED BY OPEN BABEL 3.1.1

>  <MASTER>  (64) 
        0    0    0    0    0    0    0    0   58    0   58    0

>  <minimizedAffinity>  (64) 
-7.60300

>  <CNNscore>  (64) 
0.5414600372

>  <CNNaffinity>  (64) 
4.2403864861

>  <CNN_VS>  (64) 
2.2959997654

>  <CNNaffinity_variance>  (64) 
0.5261319876

$$$$
65
     RDKit          3D

 43 45  0  0  0  0  0  0  0  0999 V2000
   21.7033   72.2255   -3.7277 P   0  0  2  0  0  0  0  0  0  0  0  0
   20.6474   73.4394   -3.5581 O   0  0  0  0  0  0  0  0  0  0  0  0
   22.9604   72.5776   -4.4675 O   0  0  0  0  0  0  0  0  0  0  0  0
   20.8214   71.0305   -4.3698 O   0  0  0  0  0  0  0  0  0  0  0  0
   20.4117   69.9658   -3.5293 C   0  0  0  0  0  0  0  0  0  0  0  0
   18.3113   70.8025   -4.3430 O   0  0  0  0  0  0  0  0  0  0  0  0
   17.0230   68.9819   -2.3389 O   0  0  0  0  0  0  0  0  0  0  0  0
   16.7511   67.5895   -4.6678 O   0  0  0  0  0  0  0  0  0  0  0  0
   18.2003   68.7769   -3.1181 C   0  0  1  0  0  0  0  0  0  0  0  0
   17.8336   68.4913   -4.5595 C   0  0  2  0  0  0  0  0  0  0  0  0
   18.9255   70.1119   -3.2329 C   0  0  1  0  0  0  0  0  0  0  0  0
   17.4936   69.8780   -5.0788 C   0  0  2  0  0  0  0  0  0  0  0  0
   16.5431   68.1429   -2.2514 H   0  0  0  0  0  0  0  0  0  0  0  0
   17.0171   66.7222   -4.3247 H   0  0  0  0  0  0  0  0  0  0  0  0
   15.8637   71.3039   -6.8921 O   0  0  0  0  0  0  0  0  0  0  0  0
   18.6611   70.3616  -10.4316 O   0  0  0  0  0  0  0  0  0  0  0  0
   17.7724   70.0217   -6.4799 N   0  0  0  0  0  0  0  0  0  0  0  0
   17.2580   70.8337   -8.6530 N   0  0  0  0  0  0  0  0  0  0  0  0
   16.8891   70.7573   -7.3039 C   0  0  0  0  0  0  0  0  0  0  0  0
   18.9112   69.4372   -7.0234 C   0  0  0  0  0  0  0  0  0  0  0  0
   19.2481   69.5182   -8.3122 C   0  0  0  0  0  0  0  0  0  0  0  0
   18.3787   70.2689   -9.2410 C   0  0  0  0  0  0  0  0  0  0  0  0
   16.6574   71.3409   -9.2461 H   0  0  0  0  0  0  0  0  0  0  0  0
   21.9344   71.7296   -2.2066 O   0  0  0  0  0  0  0  0  0  0  0  0
   21.9639   72.5515   -0.8150 P   0  0  2  0  0  0  0  0  0  0  0  0
   23.0702   71.7595    0.0603 O   0  0  0  0  0  0  0  0  0  0  0  0
   20.6247   72.6821   -0.1490 O   0  0  0  0  0  0  0  0  0  0  0  0
   22.6666   73.9565   -1.1853 O   0  0  0  0  0  0  0  0  0  0  0  0
   23.2183   75.4919    0.5337 O   0  0  0  0  0  0  0  0  0  0  0  0
   23.1269   78.0942   -2.6711 O   0  0  0  0  0  0  0  0  0  0  0  0
   25.6490   77.3715   -1.5030 O   0  0  0  0  0  0  0  0  0  0  0  0
   21.1897   75.9504   -2.4961 O   0  0  0  0  0  0  0  0  0  0  0  0
   23.3704   76.8498   -2.0097 C   0  0  1  0  0  0  0  0  0  0  0  0
   24.3911   77.0905   -0.8956 C   0  0  1  0  0  0  0  0  0  0  0  0
   22.0570   76.3262   -1.4317 C   0  0  2  0  0  0  0  0  0  0  0  0
   24.5037   75.8685    0.0259 C   0  0  1  0  0  0  0  0  0  0  0  0
   22.2861   75.1418   -0.4912 C   0  0  1  0  0  0  0  0  0  0  0  0
   23.9568   78.4319   -3.0408 H   0  0  0  0  0  0  0  0  0  0  0  0
   25.5640   78.1448   -2.0826 H   0  0  0  0  0  0  0  0  0  0  0  0
   21.0523   76.7088   -3.0842 H   0  0  0  0  0  0  0  0  0  0  0  0
   24.8716   75.4480    2.3490 O   0  0  0  0  0  0  0  0  0  0  0  0
   25.3973   76.1433    1.2334 C   0  0  0  0  0  0  0  0  0  0  0  0
   25.4304   75.6134    3.1250 H   0  0  0  0  0  0  0  0  0  0  0  0
 25 28  1  0
 25 24  1  0
 25 26  1  1
 25 27  2  0
  1  4  1  0
  1 24  1  0
  1  2  1  1
  1  3  2  0
  6 11  1  0
  6 12  1  0
 29 36  1  0
 29 37  1  0
  9  7  1  1
  7 13  1  0
 10  8  1  1
  8 14  1  0
 37 28  1  6
  4  5  1  0
 33 30  1  1
 30 38  1  0
 34 31  1  6
 31 39  1  0
 35 32  1  6
 32 40  1  0
 41 42  1  0
 41 43  1  0
 15 19  2  0
 16 22  2  0
 12 17  1  6
 17 19  1  0
 17 20  1  0
 18 19  1  0
 18 22  1  0
 18 23  1  0
  9 10  1  0
  9 11  1  0
 10 12  1  0
 11  5  1  6
 33 34  1  0
 33 35  1  0
 34 36  1  0
 35 37  1  0
 36 42  1  1
 20 21  2  0
 21 22  1  0
M  CHG  2   2  -1  26  -1
M  END
>  <COMPND>  (65) 
    8629 

>  <AUTHOR>  (65) 
    GENERATED BY OPEN BABEL 3.1.1

>  <MASTER>  (65) 
        0    0    0    0    0    0    0    0   58    0   58    0

>  <minimizedAffinity>  (65) 
-7.15924

>  <CNNscore>  (65) 
0.5261561275

>  <CNNaffinity>  (65) 
4.4307885170

>  <CNN_VS>  (65) 
2.3312864304

>  <CNNaffinity_variance>  (65) 
0.0122491252

$$$$
66
     RDKit          3D

 43 45  0  0  0  0  0  0  0  0999 V2000
   20.5448   71.2300   -1.1433 P   0  0  2  0  0  0  0  0  0  0  0  0
   20.3200   69.6856   -0.7172 O   0  0  0  0  0  0  0  0  0  0  0  0
   20.9170   72.1502   -0.0180 O   0  0  0  0  0  0  0  0  0  0  0  0
   19.1927   71.6123   -1.9456 O   0  0  0  0  0  0  0  0  0  0  0  0
   18.9267   70.9565   -3.1732 C   0  0  0  0  0  0  0  0  0  0  0  0
   16.9389   71.0645   -4.5188 O   0  0  0  0  0  0  0  0  0  0  0  0
   15.8312   68.9363   -2.7202 O   0  0  0  0  0  0  0  0  0  0  0  0
   16.5901   67.5178   -4.9222 O   0  0  0  0  0  0  0  0  0  0  0  0
   17.1674   69.1186   -3.1856 C   0  0  1  0  0  0  0  0  0  0  0  0
   17.2752   68.7218   -4.6432 C   0  0  2  0  0  0  0  0  0  0  0  0
   17.4444   70.6158   -3.2423 C   0  0  1  0  0  0  0  0  0  0  0  0
   16.6584   69.9211   -5.3427 C   0  0  2  0  0  0  0  0  0  0  0  0
   15.6313   67.9876   -2.6753 H   0  0  0  0  0  0  0  0  0  0  0  0
   17.0204   66.7850   -4.4546 H   0  0  0  0  0  0  0  0  0  0  0  0
   15.3836   71.3826   -7.3963 O   0  0  0  0  0  0  0  0  0  0  0  0
   18.8857   70.6930  -10.3119 O   0  0  0  0  0  0  0  0  0  0  0  0
   17.2145   70.1395   -6.6483 N   0  0  0  0  0  0  0  0  0  0  0  0
   17.1285   71.0382   -8.8463 N   0  0  0  0  0  0  0  0  0  0  0  0
   16.4923   70.8869   -7.6076 C   0  0  0  0  0  0  0  0  0  0  0  0
   18.4628   69.6154   -6.9663 C   0  0  0  0  0  0  0  0  0  0  0  0
   19.0550   69.7676   -8.1526 C   0  0  0  0  0  0  0  0  0  0  0  0
   18.3675   70.5354   -9.2108 C   0  0  0  0  0  0  0  0  0  0  0  0
   16.6439   71.5549   -9.5304 H   0  0  0  0  0  0  0  0  0  0  0  0
   21.6483   71.1255   -2.3199 O   0  0  0  0  0  0  0  0  0  0  0  0
   22.8001   72.1577   -2.7897 P   0  0  2  0  0  0  0  0  0  0  0  0
   23.8523   71.2091   -3.5709 O   0  0  0  0  0  0  0  0  0  0  0  0
   23.4009   72.9597   -1.6718 O   0  0  0  0  0  0  0  0  0  0  0  0
   22.1084   73.0411   -3.9500 O   0  0  0  0  0  0  0  0  0  0  0  0
   20.7012   72.4678   -5.7686 O   0  0  0  0  0  0  0  0  0  0  0  0
   23.0744   75.2858   -7.6335 O   0  0  0  0  0  0  0  0  0  0  0  0
   20.3509   75.9290   -6.9879 O   0  0  0  0  0  0  0  0  0  0  0  0
   24.2427   73.4484   -5.7260 O   0  0  0  0  0  0  0  0  0  0  0  0
   22.3560   74.7035   -6.5425 C   0  0  1  0  0  0  0  0  0  0  0  0
   20.8808   74.6073   -6.9365 C   0  0  1  0  0  0  0  0  0  0  0  0
   22.9267   73.3166   -6.2526 C   0  0  2  0  0  0  0  0  0  0  0  0
   20.0937   73.7547   -5.9322 C   0  0  1  0  0  0  0  0  0  0  0  0
   22.0424   72.5339   -5.2802 C   0  0  1  0  0  0  0  0  0  0  0  0
   22.7173   76.1669   -7.8223 H   0  0  0  0  0  0  0  0  0  0  0  0
   20.8570   76.4570   -7.6252 H   0  0  0  0  0  0  0  0  0  0  0  0
   24.7926   73.9453   -6.3509 H   0  0  0  0  0  0  0  0  0  0  0  0
   18.5872   73.7276   -7.7866 O   0  0  0  0  0  0  0  0  0  0  0  0
   18.6563   73.5146   -6.3887 C   0  0  0  0  0  0  0  0  0  0  0  0
   17.6781   73.5781   -8.0913 H   0  0  0  0  0  0  0  0  0  0  0  0
 25 28  1  0
 25 24  1  0
 25 26  1  6
 25 27  2  0
  1  4  1  0
  1 24  1  0
  1  2  1  1
  1  3  2  0
  6 11  1  0
  6 12  1  0
 29 36  1  0
 29 37  1  0
  9  7  1  6
  7 13  1  0
 10  8  1  1
  8 14  1  0
 37 28  1  1
  4  5  1  0
 33 30  1  6
 30 38  1  0
 34 31  1  1
 31 39  1  0
 35 32  1  1
 32 40  1  0
 41 42  1  0
 41 43  1  0
 15 19  2  0
 16 22  2  0
 12 17  1  6
 17 19  1  0
 17 20  1  0
 18 19  1  0
 18 22  1  0
 18 23  1  0
  9 10  1  0
  9 11  1  0
 10 12  1  0
 11  5  1  6
 33 34  1  0
 33 35  1  0
 34 36  1  0
 35 37  1  0
 36 42  1  6
 20 21  2  0
 21 22  1  0
M  CHG  2   2  -1  26  -1
M  END
>  <COMPND>  (66) 
    8629 

>  <AUTHOR>  (66) 
    GENERATED BY OPEN BABEL 3.1.1

>  <MASTER>  (66) 
        0    0    0    0    0    0    0    0   58    0   58    0

>  <minimizedAffinity>  (66) 
-7.66580

>  <CNNscore>  (66) 
0.4989764094

>  <CNNaffinity>  (66) 
4.2492623329

>  <CNN_VS>  (66) 
2.1202816963

>  <CNNaffinity_variance>  (66) 
0.6708958745

$$$$
67
     RDKit          3D

 43 45  0  0  0  0  0  0  0  0999 V2000
   19.2523   73.8259   -6.7103 P   0  0  2  0  0  0  0  0  0  0  0  0
   18.4464   75.2069   -6.9571 O   0  0  0  0  0  0  0  0  0  0  0  0
   20.7449   73.9352   -6.8181 O   0  0  0  0  0  0  0  0  0  0  0  0
   18.5493   72.7794   -7.7244 O   0  0  0  0  0  0  0  0  0  0  0  0
   18.9207   71.4139   -7.6513 C   0  0  0  0  0  0  0  0  0  0  0  0
   17.8612   69.5535   -6.5603 O   0  0  0  0  0  0  0  0  0  0  0  0
   15.2770   70.6448   -7.6196 O   0  0  0  0  0  0  0  0  0  0  0  0
   15.2554   71.4800   -5.0237 O   0  0  0  0  0  0  0  0  0  0  0  0
   16.4273   71.3458   -7.1497 C   0  0  1  0  0  0  0  0  0  0  0  0
   16.5096   71.2687   -5.6395 C   0  0  2  0  0  0  0  0  0  0  0  0
   17.6617   70.5610   -7.5760 C   0  0  1  0  0  0  0  0  0  0  0  0
   17.0366   69.8601   -5.4242 C   0  0  2  0  0  0  0  0  0  0  0  0
   14.4760   71.1273   -7.3596 H   0  0  0  0  0  0  0  0  0  0  0  0
   14.9630   72.3899   -5.1893 H   0  0  0  0  0  0  0  0  0  0  0  0
   15.9755   69.8089   -2.8070 O   0  0  0  0  0  0  0  0  0  0  0  0
   20.1629   69.4263   -0.9200 O   0  0  0  0  0  0  0  0  0  0  0  0
   17.8267   69.7475   -4.2306 N   0  0  0  0  0  0  0  0  0  0  0  0
   18.0614   69.6183   -1.8696 N   0  0  0  0  0  0  0  0  0  0  0  0
   17.1957   69.7320   -2.9649 C   0  0  0  0  0  0  0  0  0  0  0  0
   19.2111   69.6535   -4.3223 C   0  0  0  0  0  0  0  0  0  0  0  0
   20.0225   69.5469   -3.2681 C   0  0  0  0  0  0  0  0  0  0  0  0
   19.4434   69.5233   -1.9093 C   0  0  0  0  0  0  0  0  0  0  0  0
   17.6442   69.6058   -0.9776 H   0  0  0  0  0  0  0  0  0  0  0  0
   18.7157   73.3457   -5.2630 O   0  0  0  0  0  0  0  0  0  0  0  0
   19.1020   73.8353   -3.7717 P   0  0  2  0  0  0  0  0  0  0  0  0
   17.8679   73.2986   -2.8737 O   0  0  0  0  0  0  0  0  0  0  0  0
   19.3574   75.3101   -3.6550 O   0  0  0  0  0  0  0  0  0  0  0  0
   20.3503   72.9046   -3.3467 O   0  0  0  0  0  0  0  0  0  0  0  0
   21.8743   73.7423   -1.7366 O   0  0  0  0  0  0  0  0  0  0  0  0
   24.2313   70.7893   -3.4023 O   0  0  0  0  0  0  0  0  0  0  0  0
   23.1508   70.4229   -0.7668 O   0  0  0  0  0  0  0  0  0  0  0  0
   22.4831   72.3641   -5.0886 O   0  0  0  0  0  0  0  0  0  0  0  0
   23.0104   71.3831   -2.9529 C   0  0  1  0  0  0  0  0  0  0  0  0
   23.1394   71.6701   -1.4556 C   0  0  1  0  0  0  0  0  0  0  0  0
   22.7688   72.6762   -3.7294 C   0  0  2  0  0  0  0  0  0  0  0  0
   21.9813   72.5451   -0.9575 C   0  0  1  0  0  0  0  0  0  0  0  0
   21.6280   73.4948   -3.1223 C   0  0  1  0  0  0  0  0  0  0  0  0
   24.3904   69.9675   -2.9136 H   0  0  0  0  0  0  0  0  0  0  0  0
   23.8864   69.8798   -1.0910 H   0  0  0  0  0  0  0  0  0  0  0  0
   23.2129   71.8461   -5.4615 H   0  0  0  0  0  0  0  0  0  0  0  0
   23.2655   72.2549    1.0363 O   0  0  0  0  0  0  0  0  0  0  0  0
   22.1726   72.9742    0.4956 C   0  0  0  0  0  0  0  0  0  0  0  0
   23.3993   72.5180    1.9608 H   0  0  0  0  0  0  0  0  0  0  0  0
 25 28  1  0
 25 24  1  0
 25 26  1  1
 25 27  2  0
  1  4  1  0
  1 24  1  0
  1  2  1  6
  1  3  2  0
  6 11  1  0
  6 12  1  0
 29 36  1  0
 29 37  1  0
  9  7  1  6
  7 13  1  0
 10  8  1  1
  8 14  1  0
 37 28  1  1
  4  5  1  0
 33 30  1  6
 30 38  1  0
 34 31  1  1
 31 39  1  0
 35 32  1  6
 32 40  1  0
 41 42  1  0
 41 43  1  0
 15 19  2  0
 16 22  2  0
 12 17  1  1
 17 19  1  0
 17 20  1  0
 18 19  1  0
 18 22  1  0
 18 23  1  0
  9 10  1  0
  9 11  1  0
 10 12  1  0
 11  5  1  1
 33 34  1  0
 33 35  1  0
 34 36  1  0
 35 37  1  0
 36 42  1  1
 20 21  2  0
 21 22  1  0
M  CHG  2   2  -1  26  -1
M  END
>  <COMPND>  (67) 
    8629 

>  <AUTHOR>  (67) 
    GENERATED BY OPEN BABEL 3.1.1

>  <MASTER>  (67) 
        0    0    0    0    0    0    0    0   58    0   58    0

>  <minimizedAffinity>  (67) 
-7.35265

>  <CNNscore>  (67) 
0.4873805344

>  <CNNaffinity>  (67) 
4.1262612343

>  <CNN_VS>  (67) 
2.0110595226

>  <CNNaffinity_variance>  (67) 
0.6929074526

$$$$
68
     RDKit          3D

 43 45  0  0  0  0  0  0  0  0999 V2000
   17.7340   70.7721   -2.1555 P   0  0  2  0  0  0  0  0  0  0  0  0
   16.1353   71.0157   -2.2015 O   0  0  0  0  0  0  0  0  0  0  0  0
   18.1765   69.6310   -1.2874 O   0  0  0  0  0  0  0  0  0  0  0  0
   18.3372   72.2232   -1.7701 O   0  0  0  0  0  0  0  0  0  0  0  0
   17.6128   73.0376   -0.8646 C   0  0  0  0  0  0  0  0  0  0  0  0
   19.7333   72.6166    0.1843 O   0  0  0  0  0  0  0  0  0  0  0  0
   19.1163   74.9631    1.9462 O   0  0  0  0  0  0  0  0  0  0  0  0
   20.8430   76.0265    0.1229 O   0  0  0  0  0  0  0  0  0  0  0  0
   18.8117   74.7662    0.5664 C   0  0  1  0  0  0  0  0  0  0  0  0
   20.0618   74.9183   -0.2749 C   0  0  2  0  0  0  0  0  0  0  0  0
   18.4710   73.2947    0.3665 C   0  0  1  0  0  0  0  0  0  0  0  0
   20.7645   73.5924   -0.0379 C   0  0  2  0  0  0  0  0  0  0  0  0
   19.3369   75.8959    2.0985 H   0  0  0  0  0  0  0  0  0  0  0  0
   20.3529   76.8459   -0.0479 H   0  0  0  0  0  0  0  0  0  0  0  0
   23.0247   71.9069    0.1313 O   0  0  0  0  0  0  0  0  0  0  0  0
   23.7332   72.0946   -4.4188 O   0  0  0  0  0  0  0  0  0  0  0  0
   21.5581   73.1843   -1.1626 N   0  0  0  0  0  0  0  0  0  0  0  0
   23.3755   72.0016   -2.1345 N   0  0  0  0  0  0  0  0  0  0  0  0
   22.6737   72.3366   -0.9695 C   0  0  0  0  0  0  0  0  0  0  0  0
   21.2273   73.6236   -2.4399 C   0  0  0  0  0  0  0  0  0  0  0  0
   21.9076   73.2960   -3.5404 C   0  0  0  0  0  0  0  0  0  0  0  0
   23.0869   72.4138   -3.4257 C   0  0  0  0  0  0  0  0  0  0  0  0
   24.1568   71.4123   -2.0242 H   0  0  0  0  0  0  0  0  0  0  0  0
   18.1235   70.6198   -3.7169 O   0  0  0  0  0  0  0  0  0  0  0  0
   19.3003   69.7803   -4.4405 P   0  0  2  0  0  0  0  0  0  0  0  0
   18.7377   68.2635   -4.4245 O   0  0  0  0  0  0  0  0  0  0  0  0
   20.6522   69.9461   -3.8090 O   0  0  0  0  0  0  0  0  0  0  0  0
   19.2267   70.2261   -5.9900 O   0  0  0  0  0  0  0  0  0  0  0  0
   16.9933   70.2794   -6.7811 O   0  0  0  0  0  0  0  0  0  0  0  0
   18.9764   70.7652  -10.3703 O   0  0  0  0  0  0  0  0  0  0  0  0
   17.5908   72.9935   -9.2029 O   0  0  0  0  0  0  0  0  0  0  0  0
   20.0407   68.9704   -8.3639 O   0  0  0  0  0  0  0  0  0  0  0  0
   18.7686   70.9255   -8.9644 C   0  0  1  0  0  0  0  0  0  0  0  0
   17.4369   71.6494   -8.7559 C   0  0  1  0  0  0  0  0  0  0  0  0
   18.7413   69.5485   -8.3036 C   0  0  2  0  0  0  0  0  0  0  0  0
   17.0165   71.6218   -7.2802 C   0  0  1  0  0  0  0  0  0  0  0  0
   18.2629   69.6277   -6.8527 C   0  0  1  0  0  0  0  0  0  0  0  0
   18.9953   71.6359  -10.7957 H   0  0  0  0  0  0  0  0  0  0  0  0
   17.8568   72.9968  -10.1359 H   0  0  0  0  0  0  0  0  0  0  0  0
   20.3320   68.9256   -9.2875 H   0  0  0  0  0  0  0  0  0  0  0  0
   14.9848   72.3065   -8.3349 O   0  0  0  0  0  0  0  0  0  0  0  0
   15.6179   72.1989   -7.0732 C   0  0  0  0  0  0  0  0  0  0  0  0
   14.0935   72.6722   -8.2186 H   0  0  0  0  0  0  0  0  0  0  0  0
 25 28  1  0
 25 24  1  0
 25 26  1  6
 25 27  2  0
  1  4  1  0
  1 24  1  0
  1  2  1  6
  1  3  2  0
  6 11  1  0
  6 12  1  0
 29 36  1  0
 29 37  1  0
  9  7  1  1
  7 13  1  0
 10  8  1  1
  8 14  1  0
 37 28  1  1
  4  5  1  0
 33 30  1  6
 30 38  1  0
 34 31  1  1
 31 39  1  0
 35 32  1  1
 32 40  1  0
 41 42  1  0
 41 43  1  0
 15 19  2  0
 16 22  2  0
 12 17  1  6
 17 19  1  0
 17 20  1  0
 18 19  1  0
 18 22  1  0
 18 23  1  0
  9 10  1  0
  9 11  1  0
 10 12  1  0
 11  5  1  6
 33 34  1  0
 33 35  1  0
 34 36  1  0
 35 37  1  0
 36 42  1  6
 20 21  2  0
 21 22  1  0
M  CHG  2   2  -1  26  -1
M  END
>  <COMPND>  (68) 
    8629 

>  <AUTHOR>  (68) 
    GENERATED BY OPEN BABEL 3.1.1

>  <MASTER>  (68) 
        0    0    0    0    0    0    0    0   58    0   58    0

>  <minimizedAffinity>  (68) 
-8.06828

>  <CNNscore>  (68) 
0.4629289508

>  <CNNaffinity>  (68) 
4.0134143829

>  <CNN_VS>  (68) 
1.8579256535

>  <CNNaffinity_variance>  (68) 
0.5973300934

$$$$
69
     RDKit          3D

 43 45  0  0  0  0  0  0  0  0999 V2000
   22.5160   71.3457   -1.9213 P   0  0  2  0  0  0  0  0  0  0  0  0
   23.8019   70.6842   -2.6466 O   0  0  0  0  0  0  0  0  0  0  0  0
   21.9830   70.5749   -0.7495 O   0  0  0  0  0  0  0  0  0  0  0  0
   21.4721   71.5943   -3.1323 O   0  0  0  0  0  0  0  0  0  0  0  0
   20.7821   70.4794   -3.6697 C   0  0  0  0  0  0  0  0  0  0  0  0
   18.5987   71.1568   -4.4097 O   0  0  0  0  0  0  0  0  0  0  0  0
   17.5219   69.4322   -2.2058 O   0  0  0  0  0  0  0  0  0  0  0  0
   17.1851   67.8606   -4.4089 O   0  0  0  0  0  0  0  0  0  0  0  0
   18.6607   69.2242   -3.0397 C   0  0  1  0  0  0  0  0  0  0  0  0
   18.2256   68.8165   -4.4318 C   0  0  2  0  0  0  0  0  0  0  0  0
   19.3102   70.5788   -3.2934 C   0  0  1  0  0  0  0  0  0  0  0  0
   17.7869   70.1440   -5.0263 C   0  0  2  0  0  0  0  0  0  0  0  0
   17.0905   68.5808   -2.0297 H   0  0  0  0  0  0  0  0  0  0  0  0
   17.5136   67.0340   -4.0222 H   0  0  0  0  0  0  0  0  0  0  0  0
   16.0214   71.4187   -6.8252 O   0  0  0  0  0  0  0  0  0  0  0  0
   18.6136   70.2806  -10.4620 O   0  0  0  0  0  0  0  0  0  0  0  0
   17.9763   70.1965   -6.4485 N   0  0  0  0  0  0  0  0  0  0  0  0
   17.3137   70.8512   -8.6345 N   0  0  0  0  0  0  0  0  0  0  0  0
   17.0299   70.8610   -7.2629 C   0  0  0  0  0  0  0  0  0  0  0  0
   19.0906   69.5937   -7.0220 C   0  0  0  0  0  0  0  0  0  0  0  0
   19.3460   69.5921   -8.3319 C   0  0  0  0  0  0  0  0  0  0  0  0
   18.4068   70.2647   -9.2525 C   0  0  0  0  0  0  0  0  0  0  0  0
   16.6681   71.3078   -9.2215 H   0  0  0  0  0  0  0  0  0  0  0  0
   23.0256   72.8387   -1.5687 O   0  0  0  0  0  0  0  0  0  0  0  0
   22.7148   74.2603   -2.2725 P   0  0  2  0  0  0  0  0  0  0  0  0
   23.9096   75.2096   -1.7349 O   0  0  0  0  0  0  0  0  0  0  0  0
   21.3356   74.7902   -2.0065 O   0  0  0  0  0  0  0  0  0  0  0  0
   23.0516   74.0257   -3.8335 O   0  0  0  0  0  0  0  0  0  0  0  0
   23.4627   75.3444   -5.7592 O   0  0  0  0  0  0  0  0  0  0  0  0
   20.6265   72.7760   -7.3115 O   0  0  0  0  0  0  0  0  0  0  0  0
   23.3734   72.5004   -8.1029 O   0  0  0  0  0  0  0  0  0  0  0  0
   20.3656   73.7442   -4.5960 O   0  0  0  0  0  0  0  0  0  0  0  0
   21.7337   73.1497   -6.4871 C   0  0  1  0  0  0  0  0  0  0  0  0
   22.8676   73.6292   -7.3955 C   0  0  1  0  0  0  0  0  0  0  0  0
   21.2963   74.2648   -5.5391 C   0  0  2  0  0  0  0  0  0  0  0  0
   23.9856   74.2947   -6.5817 C   0  0  1  0  0  0  0  0  0  0  0  0
   22.4895   74.8918   -4.8159 C   0  0  1  0  0  0  0  0  0  0  0  0
   20.8974   72.0680   -7.9155 H   0  0  0  0  0  0  0  0  0  0  0  0
   22.6575   72.0891   -8.6122 H   0  0  0  0  0  0  0  0  0  0  0  0
   19.6149   73.3504   -5.0663 H   0  0  0  0  0  0  0  0  0  0  0  0
   24.6172   74.8288   -8.8233 O   0  0  0  0  0  0  0  0  0  0  0  0
   25.0515   74.9199   -7.4789 C   0  0  0  0  0  0  0  0  0  0  0  0
   25.2857   75.2232   -9.4058 H   0  0  0  0  0  0  0  0  0  0  0  0
 25 28  1  0
 25 24  1  0
 25 26  1  1
 25 27  2  0
  1  4  1  0
  1 24  1  0
  1  2  1  6
  1  3  2  0
  6 11  1  0
  6 12  1  0
 29 36  1  0
 29 37  1  0
  9  7  1  1
  7 13  1  0
 10  8  1  1
  8 14  1  0
 37 28  1  1
  4  5  1  0
 33 30  1  6
 30 38  1  0
 34 31  1  1
 31 39  1  0
 35 32  1  1
 32 40  1  0
 41 42  1  0
 41 43  1  0
 15 19  2  0
 16 22  2  0
 12 17  1  6
 17 19  1  0
 17 20  1  0
 18 19  1  0
 18 22  1  0
 18 23  1  0
  9 10  1  0
  9 11  1  0
 10 12  1  0
 11  5  1  6
 33 34  1  0
 33 35  1  0
 34 36  1  0
 35 37  1  0
 36 42  1  6
 20 21  2  0
 21 22  1  0
M  CHG  2   2  -1  26  -1
M  END
>  <COMPND>  (69) 
    8629 

>  <AUTHOR>  (69) 
    GENERATED BY OPEN BABEL 3.1.1

>  <MASTER>  (69) 
        0    0    0    0    0    0    0    0   58    0   58    0

>  <minimizedAffinity>  (69) 
-7.90499

>  <CNNscore>  (69) 
0.4326195121

>  <CNNaffinity>  (69) 
4.1394586563

>  <CNN_VS>  (69) 
1.7908105850

>  <CNNaffinity_variance>  (69) 
0.7049432993

$$$$
70
     RDKit          3D

 43 45  0  0  0  0  0  0  0  0999 V2000
   16.5623   70.6597   -6.3918 P   0  0  2  0  0  0  0  0  0  0  0  0
   16.3232   72.0212   -5.5513 O   0  0  0  0  0  0  0  0  0  0  0  0
   16.0447   70.6850   -7.7999 O   0  0  0  0  0  0  0  0  0  0  0  0
   15.9515   69.5030   -5.4394 O   0  0  0  0  0  0  0  0  0  0  0  0
   16.8485   68.6263   -4.7803 C   0  0  0  0  0  0  0  0  0  0  0  0
   17.6414   68.4241   -2.5210 O   0  0  0  0  0  0  0  0  0  0  0  0
   14.9035   69.3103   -1.6790 O   0  0  0  0  0  0  0  0  0  0  0  0
   16.3741   71.5916   -1.4151 O   0  0  0  0  0  0  0  0  0  0  0  0
   15.6786   69.7213   -2.8041 C   0  0  1  0  0  0  0  0  0  0  0  0
   16.8028   70.6350   -2.3626 C   0  0  2  0  0  0  0  0  0  0  0  0
   16.4399   68.5059   -3.3185 C   0  0  1  0  0  0  0  0  0  0  0  0
   17.8029   69.6478   -1.7853 C   0  0  2  0  0  0  0  0  0  0  0  0
   14.4080   70.0698   -1.3332 H   0  0  0  0  0  0  0  0  0  0  0  0
   15.7394   72.1963   -1.8302 H   0  0  0  0  0  0  0  0  0  0  0  0
   19.0507   71.5008   -0.0569 O   0  0  0  0  0  0  0  0  0  0  0  0
   23.0098   71.3060   -2.4083 O   0  0  0  0  0  0  0  0  0  0  0  0
   19.1591   70.0988   -1.9223 N   0  0  0  0  0  0  0  0  0  0  0  0
   21.0210   71.4022   -1.2290 N   0  0  0  0  0  0  0  0  0  0  0  0
   19.6894   71.0321   -1.0014 C   0  0  0  0  0  0  0  0  0  0  0  0
   19.9483   69.6161   -2.9606 C   0  0  0  0  0  0  0  0  0  0  0  0
   21.2161   69.9800   -3.1646 C   0  0  0  0  0  0  0  0  0  0  0  0
   21.8461   70.9515   -2.2473 C   0  0  0  0  0  0  0  0  0  0  0  0
   21.4116   72.0517   -0.6002 H   0  0  0  0  0  0  0  0  0  0  0  0
   18.1573   70.4297   -6.2653 O   0  0  0  0  0  0  0  0  0  0  0  0
   19.3641   70.7788   -7.2826 P   0  0  2  0  0  0  0  0  0  0  0  0
   18.7025   71.8626   -8.2851 O   0  0  0  0  0  0  0  0  0  0  0  0
   19.9566   69.5818   -7.9682 O   0  0  0  0  0  0  0  0  0  0  0  0
   20.4118   71.6291   -6.3970 O   0  0  0  0  0  0  0  0  0  0  0  0
   20.2354   73.8858   -5.6953 O   0  0  0  0  0  0  0  0  0  0  0  0
   24.3322   73.6572   -6.1581 O   0  0  0  0  0  0  0  0  0  0  0  0
   23.2073   73.7629   -3.5177 O   0  0  0  0  0  0  0  0  0  0  0  0
   22.5896   72.3049   -8.0327 O   0  0  0  0  0  0  0  0  0  0  0  0
   23.0291   73.1692   -5.8279 C   0  0  1  0  0  0  0  0  0  0  0  0
   22.4633   74.0367   -4.7017 C   0  0  1  0  0  0  0  0  0  0  0  0
   22.1382   73.2476   -7.0662 C   0  0  2  0  0  0  0  0  0  0  0  0
   20.9732   73.7479   -4.4753 C   0  0  1  0  0  0  0  0  0  0  0  0
   20.6695   72.9925   -6.7225 C   0  0  1  0  0  0  0  0  0  0  0  0
   24.9031   73.6097   -5.3761 H   0  0  0  0  0  0  0  0  0  0  0  0
   24.1465   73.9489   -3.6743 H   0  0  0  0  0  0  0  0  0  0  0  0
   23.5204   72.4771   -8.2420 H   0  0  0  0  0  0  0  0  0  0  0  0
   20.7234   74.2994   -2.1639 O   0  0  0  0  0  0  0  0  0  0  0  0
   20.3509   74.7107   -3.4664 C   0  0  0  0  0  0  0  0  0  0  0  0
   20.3347   74.9033   -1.5113 H   0  0  0  0  0  0  0  0  0  0  0  0
 25 28  1  0
 25 24  1  0
 25 26  1  6
 25 27  2  0
  1  4  1  0
  1 24  1  0
  1  2  1  1
  1  3  2  0
  6 11  1  0
  6 12  1  0
 29 36  1  0
 29 37  1  0
  9  7  1  1
  7 13  1  0
 10  8  1  1
  8 14  1  0
 37 28  1  1
  4  5  1  0
 33 30  1  6
 30 38  1  0
 34 31  1  1
 31 39  1  0
 35 32  1  6
 32 40  1  0
 41 42  1  0
 41 43  1  0
 15 19  2  0
 16 22  2  0
 12 17  1  6
 17 19  1  0
 17 20  1  0
 18 19  1  0
 18 22  1  0
 18 23  1  0
  9 10  1  0
  9 11  1  0
 10 12  1  0
 11  5  1  6
 33 34  1  0
 33 35  1  0
 34 36  1  0
 35 37  1  0
 36 42  1  1
 20 21  2  0
 21 22  1  0
M  CHG  2   2  -1  26  -1
M  END
>  <COMPND>  (70) 
    8629 

>  <AUTHOR>  (70) 
    GENERATED BY OPEN BABEL 3.1.1

>  <MASTER>  (70) 
        0    0    0    0    0    0    0    0   58    0   58    0

>  <minimizedAffinity>  (70) 
-7.04044

>  <CNNscore>  (70) 
0.4247516990

>  <CNNaffinity>  (70) 
4.0879464149

>  <CNN_VS>  (70) 
1.7363622189

>  <CNNaffinity_variance>  (70) 
0.5282557011

$$$$
71
     RDKit          3D

 43 45  0  0  0  0  0  0  0  0999 V2000
   22.5434   73.5900   -5.5829 P   0  0  2  0  0  0  0  0  0  0  0  0
   24.0901   73.3784   -6.0076 O   0  0  0  0  0  0  0  0  0  0  0  0
   21.6697   74.1855   -6.6475 O   0  0  0  0  0  0  0  0  0  0  0  0
   22.6311   74.4230   -4.1986 O   0  0  0  0  0  0  0  0  0  0  0  0
   23.2006   73.7920   -3.0648 C   0  0  0  0  0  0  0  0  0  0  0  0
   21.3460   74.1565   -1.5811 O   0  0  0  0  0  0  0  0  0  0  0  0
   23.3681   75.1379    0.4035 O   0  0  0  0  0  0  0  0  0  0  0  0
   22.8638   72.6028    1.2729 O   0  0  0  0  0  0  0  0  0  0  0  0
   23.4799   74.0853   -0.5530 C   0  0  1  0  0  0  0  0  0  0  0  0
   22.6850   72.8779   -0.1016 C   0  0  2  0  0  0  0  0  0  0  0  0
   22.7279   74.5101   -1.8082 C   0  0  1  0  0  0  0  0  0  0  0  0
   21.2624   73.2950   -0.4341 C   0  0  2  0  0  0  0  0  0  0  0  0
   23.8411   74.8897    1.2139 H   0  0  0  0  0  0  0  0  0  0  0  0
   23.7841   72.3421    1.4335 H   0  0  0  0  0  0  0  0  0  0  0  0
   22.2089   70.6753   -0.9028 O   0  0  0  0  0  0  0  0  0  0  0  0
   17.9522   69.0745   -1.6501 O   0  0  0  0  0  0  0  0  0  0  0  0
   20.4235   72.1743   -0.7528 N   0  0  0  0  0  0  0  0  0  0  0  0
   20.0886   69.8803   -1.2743 N   0  0  0  0  0  0  0  0  0  0  0  0
   20.9988   70.9007   -0.9707 C   0  0  0  0  0  0  0  0  0  0  0  0
   19.0464   72.3439   -0.8460 C   0  0  0  0  0  0  0  0  0  0  0  0
   18.1921   71.3608   -1.1378 C   0  0  0  0  0  0  0  0  0  0  0  0
   18.7118   69.9994   -1.3797 C   0  0  0  0  0  0  0  0  0  0  0  0
   20.4667   68.9845   -1.4305 H   0  0  0  0  0  0  0  0  0  0  0  0
   22.0963   72.1161   -5.0924 O   0  0  0  0  0  0  0  0  0  0  0  0
   20.6313   71.4625   -4.8931 P   0  0  2  0  0  0  0  0  0  0  0  0
   19.7601   72.6830   -4.2856 O   0  0  0  0  0  0  0  0  0  0  0  0
   20.6219   70.2174   -4.0544 O   0  0  0  0  0  0  0  0  0  0  0  0
   20.0654   71.2640   -6.3915 O   0  0  0  0  0  0  0  0  0  0  0  0
   17.6975   71.3599   -6.3641 O   0  0  0  0  0  0  0  0  0  0  0  0
   18.2687   70.2846  -10.3098 O   0  0  0  0  0  0  0  0  0  0  0  0
   17.4170   72.9533   -9.6764 O   0  0  0  0  0  0  0  0  0  0  0  0
   19.9617   69.1618   -8.2476 O   0  0  0  0  0  0  0  0  0  0  0  0
   18.5799   70.9494   -9.0823 C   0  0  1  0  0  0  0  0  0  0  0  0
   17.4191   71.8836   -8.7352 C   0  0  1  0  0  0  0  0  0  0  0  0
   18.7763   69.9050   -7.9850 C   0  0  2  0  0  0  0  0  0  0  0  0
   17.5548   72.4287   -7.3070 C   0  0  1  0  0  0  0  0  0  0  0  0
   18.8502   70.5488   -6.5993 C   0  0  1  0  0  0  0  0  0  0  0  0
   18.1432   70.9421  -11.0109 H   0  0  0  0  0  0  0  0  0  0  0  0
   17.3313   72.5955  -10.5741 H   0  0  0  0  0  0  0  0  0  0  0  0
   19.9024   68.7590   -9.1274 H   0  0  0  0  0  0  0  0  0  0  0  0
   15.4584   72.3854   -6.1615 O   0  0  0  0  0  0  0  0  0  0  0  0
   16.3294   73.2359   -6.8842 C   0  0  0  0  0  0  0  0  0  0  0  0
   14.6740   72.8857   -5.8856 H   0  0  0  0  0  0  0  0  0  0  0  0
 25 28  1  0
 25 24  1  0
 25 26  1  1
 25 27  2  0
  1  4  1  0
  1 24  1  0
  1  2  1  6
  1  3  2  0
  6 11  1  0
  6 12  1  0
 29 36  1  0
 29 37  1  0
  9  7  1  1
  7 13  1  0
 10  8  1  1
  8 14  1  0
 37 28  1  6
  4  5  1  0
 33 30  1  6
 30 38  1  0
 34 31  1  6
 31 39  1  0
 35 32  1  6
 32 40  1  0
 41 42  1  0
 41 43  1  0
 15 19  2  0
 16 22  2  0
 12 17  1  6
 17 19  1  0
 17 20  1  0
 18 19  1  0
 18 22  1  0
 18 23  1  0
  9 10  1  0
  9 11  1  0
 10 12  1  0
 11  5  1  6
 33 34  1  0
 33 35  1  0
 34 36  1  0
 35 37  1  0
 36 42  1  1
 20 21  2  0
 21 22  1  0
M  CHG  2   2  -1  26  -1
M  END
>  <COMPND>  (71) 
    8629 

>  <AUTHOR>  (71) 
    GENERATED BY OPEN BABEL 3.1.1

>  <MASTER>  (71) 
        0    0    0    0    0    0    0    0   58    0   58    0

>  <minimizedAffinity>  (71) 
-7.96392

>  <CNNscore>  (71) 
0.4191630185

>  <CNNaffinity>  (71) 
3.8762290478

>  <CNN_VS>  (71) 
1.6247718334

>  <CNNaffinity_variance>  (71) 
0.6877545118

$$$$
72
     RDKit          3D

 43 45  0  0  0  0  0  0  0  0999 V2000
   22.3544   71.7969   -3.5538 P   0  0  2  0  0  0  0  0  0  0  0  0
   23.1056   72.3695   -4.8673 O   0  0  0  0  0  0  0  0  0  0  0  0
   23.1680   70.8509   -2.7204 O   0  0  0  0  0  0  0  0  0  0  0  0
   20.9618   71.2071   -4.1289 O   0  0  0  0  0  0  0  0  0  0  0  0
   20.4812   69.9799   -3.6086 C   0  0  0  0  0  0  0  0  0  0  0  0
   18.3688   70.8077   -4.4000 O   0  0  0  0  0  0  0  0  0  0  0  0
   17.1096   68.9855   -2.3789 O   0  0  0  0  0  0  0  0  0  0  0  0
   16.8168   67.5885   -4.7026 O   0  0  0  0  0  0  0  0  0  0  0  0
   18.2788   68.7835   -3.1710 C   0  0  1  0  0  0  0  0  0  0  0  0
   17.8972   68.4944   -4.6078 C   0  0  2  0  0  0  0  0  0  0  0  0
   18.9978   70.1210   -3.2959 C   0  0  1  0  0  0  0  0  0  0  0  0
   17.5463   69.8790   -5.1253 C   0  0  2  0  0  0  0  0  0  0  0  0
   16.6338   68.1448   -2.2849 H   0  0  0  0  0  0  0  0  0  0  0  0
   17.0897   66.7227   -4.3613 H   0  0  0  0  0  0  0  0  0  0  0  0
   15.9197   71.3412   -6.9126 O   0  0  0  0  0  0  0  0  0  0  0  0
   18.6508   70.3564  -10.4920 O   0  0  0  0  0  0  0  0  0  0  0  0
   17.8089   70.0216   -6.5296 N   0  0  0  0  0  0  0  0  0  0  0  0
   17.2810   70.8498   -8.6934 N   0  0  0  0  0  0  0  0  0  0  0  0
   16.9288   70.7764   -7.3396 C   0  0  0  0  0  0  0  0  0  0  0  0
   18.9290   69.4171   -7.0900 C   0  0  0  0  0  0  0  0  0  0  0  0
   19.2500   69.4956   -8.3831 C   0  0  0  0  0  0  0  0  0  0  0  0
   18.3827   70.2655   -9.2980 C   0  0  0  0  0  0  0  0  0  0  0  0
   16.6822   71.3700   -9.2770 H   0  0  0  0  0  0  0  0  0  0  0  0
   21.8900   73.1412   -2.7857 O   0  0  0  0  0  0  0  0  0  0  0  0
   20.5054   73.5126   -2.0388 P   0  0  2  0  0  0  0  0  0  0  0  0
   20.7371   75.0426   -1.5668 O   0  0  0  0  0  0  0  0  0  0  0  0
   20.1331   72.5720   -0.9295 O   0  0  0  0  0  0  0  0  0  0  0  0
   19.4155   73.6125   -3.2250 O   0  0  0  0  0  0  0  0  0  0  0  0
   20.2343   75.1901   -4.7926 O   0  0  0  0  0  0  0  0  0  0  0  0
   16.6001   74.3331   -6.5559 O   0  0  0  0  0  0  0  0  0  0  0  0
   19.0209   73.3463   -7.7451 O   0  0  0  0  0  0  0  0  0  0  0  0
   16.7984   74.5204   -3.6740 O   0  0  0  0  0  0  0  0  0  0  0  0
   17.7900   74.0445   -5.8168 C   0  0  1  0  0  0  0  0  0  0  0  0
   18.9944   74.3312   -6.7158 C   0  0  1  0  0  0  0  0  0  0  0  0
   17.8286   74.9251   -4.5692 C   0  0  2  0  0  0  0  0  0  0  0  0
   20.3030   74.3023   -5.9147 C   0  0  1  0  0  0  0  0  0  0  0  0
   19.1900   74.8610   -3.8745 C   0  0  1  0  0  0  0  0  0  0  0  0
   16.5692   73.7769   -7.3491 H   0  0  0  0  0  0  0  0  0  0  0  0
   18.1888   73.3748   -8.2430 H   0  0  0  0  0  0  0  0  0  0  0  0
   15.9417   74.5657   -4.1255 H   0  0  0  0  0  0  0  0  0  0  0  0
   22.0540   73.5952   -7.3785 O   0  0  0  0  0  0  0  0  0  0  0  0
   21.4991   74.7399   -6.7572 C   0  0  0  0  0  0  0  0  0  0  0  0
   22.8162   73.8586   -7.9184 H   0  0  0  0  0  0  0  0  0  0  0  0
 25 28  1  0
 25 24  1  0
 25 26  1  1
 25 27  2  0
  1  4  1  0
  1 24  1  0
  1  2  1  6
  1  3  2  0
  6 11  1  0
  6 12  1  0
 29 36  1  0
 29 37  1  0
  9  7  1  1
  7 13  1  0
 10  8  1  1
  8 14  1  0
 37 28  1  6
  4  5  1  0
 33 30  1  6
 30 38  1  0
 34 31  1  6
 31 39  1  0
 35 32  1  1
 32 40  1  0
 41 42  1  0
 41 43  1  0
 15 19  2  0
 16 22  2  0
 12 17  1  6
 17 19  1  0
 17 20  1  0
 18 19  1  0
 18 22  1  0
 18 23  1  0
  9 10  1  0
  9 11  1  0
 10 12  1  0
 11  5  1  6
 33 34  1  0
 33 35  1  0
 34 36  1  0
 35 37  1  0
 36 42  1  6
 20 21  2  0
 21 22  1  0
M  CHG  2   2  -1  26  -1
M  END
>  <COMPND>  (72) 
    8629 

>  <AUTHOR>  (72) 
    GENERATED BY OPEN BABEL 3.1.1

>  <MASTER>  (72) 
        0    0    0    0    0    0    0    0   58    0   58    0

>  <minimizedAffinity>  (72) 
-6.88326

>  <CNNscore>  (72) 
0.3867240846

>  <CNNaffinity>  (72) 
4.0654001236

>  <CNN_VS>  (72) 
1.5721881390

>  <CNNaffinity_variance>  (72) 
0.6449769139

$$$$
73
     RDKit          3D

 43 45  0  0  0  0  0  0  0  0999 V2000
   18.3061   71.1025   -1.9899 P   0  0  2  0  0  0  0  0  0  0  0  0
   16.8230   71.7451   -1.9208 O   0  0  0  0  0  0  0  0  0  0  0  0
   18.5462   69.9599   -1.0474 O   0  0  0  0  0  0  0  0  0  0  0  0
   19.2895   72.3754   -1.8158 O   0  0  0  0  0  0  0  0  0  0  0  0
   19.7599   72.6939   -0.5176 C   0  0  0  0  0  0  0  0  0  0  0  0
   21.7180   71.8882   -1.6537 O   0  0  0  0  0  0  0  0  0  0  0  0
   23.1620   72.2926    0.9429 O   0  0  0  0  0  0  0  0  0  0  0  0
   23.8969   74.4905   -0.4945 O   0  0  0  0  0  0  0  0  0  0  0  0
   22.1178   73.0710    0.3605 C   0  0  1  0  0  0  0  0  0  0  0  0
   22.6540   73.8892   -0.7955 C   0  0  2  0  0  0  0  0  0  0  0  0
   21.1585   72.1183   -0.3420 C   0  0  1  0  0  0  0  0  0  0  0  0
   22.7598   72.8477   -1.8965 C   0  0  2  0  0  0  0  0  0  0  0  0
   23.7872   72.8794    1.3977 H   0  0  0  0  0  0  0  0  0  0  0  0
   23.7771   75.1451    0.2111 H   0  0  0  0  0  0  0  0  0  0  0  0
   23.8723   71.7817   -4.2637 O   0  0  0  0  0  0  0  0  0  0  0  0
   21.9973   75.0990   -6.8562 O   0  0  0  0  0  0  0  0  0  0  0  0
   22.5781   73.4124   -3.2039 N   0  0  0  0  0  0  0  0  0  0  0  0
   22.9376   73.4342   -5.5527 N   0  0  0  0  0  0  0  0  0  0  0  0
   23.1807   72.8002   -4.3276 C   0  0  0  0  0  0  0  0  0  0  0  0
   21.8094   74.5604   -3.3623 C   0  0  0  0  0  0  0  0  0  0  0  0
   21.5883   75.1534   -4.5373 C   0  0  0  0  0  0  0  0  0  0  0  0
   22.1820   74.5772   -5.7611 C   0  0  0  0  0  0  0  0  0  0  0  0
   23.3477   73.0257   -6.3494 H   0  0  0  0  0  0  0  0  0  0  0  0
   18.4681   70.7295   -3.5544 O   0  0  0  0  0  0  0  0  0  0  0  0
   19.4774   69.7139   -4.3046 P   0  0  2  0  0  0  0  0  0  0  0  0
   18.7007   68.2966   -4.2305 O   0  0  0  0  0  0  0  0  0  0  0  0
   20.8649   69.6903   -3.7318 O   0  0  0  0  0  0  0  0  0  0  0  0
   19.4030   70.1386   -5.8599 O   0  0  0  0  0  0  0  0  0  0  0  0
   17.1285   70.3722   -6.4832 O   0  0  0  0  0  0  0  0  0  0  0  0
   18.8849   70.9156  -10.1806 O   0  0  0  0  0  0  0  0  0  0  0  0
   17.7343   73.1638   -8.8132 O   0  0  0  0  0  0  0  0  0  0  0  0
   19.9651   68.9574   -8.3426 O   0  0  0  0  0  0  0  0  0  0  0  0
   18.7864   71.0165   -8.7574 C   0  0  1  0  0  0  0  0  0  0  0  0
   17.5233   71.8108   -8.4192 C   0  0  1  0  0  0  0  0  0  0  0  0
   18.7141   69.6120   -8.1611 C   0  0  2  0  0  0  0  0  0  0  0  0
   17.2056   71.7342   -6.9197 C   0  0  1  0  0  0  0  0  0  0  0  0
   18.3441   69.6467   -6.6772 C   0  0  1  0  0  0  0  0  0  0  0  0
   18.9317   71.8040  -10.5653 H   0  0  0  0  0  0  0  0  0  0  0  0
   17.9344   73.1981   -9.7618 H   0  0  0  0  0  0  0  0  0  0  0  0
   20.1879   68.9417   -9.2860 H   0  0  0  0  0  0  0  0  0  0  0  0
   15.2736   71.6728   -5.5153 O   0  0  0  0  0  0  0  0  0  0  0  0
   15.8660   72.3865   -6.5849 C   0  0  0  0  0  0  0  0  0  0  0  0
   14.4203   72.0770   -5.2911 H   0  0  0  0  0  0  0  0  0  0  0  0
 25 28  1  0
 25 24  1  0
 25 26  1  6
 25 27  2  0
  1  4  1  0
  1 24  1  0
  1  2  1  6
  1  3  2  0
  6 11  1  0
  6 12  1  0
 29 36  1  0
 29 37  1  0
  9  7  1  6
  7 13  1  0
 10  8  1  1
  8 14  1  0
 37 28  1  1
  4  5  1  0
 33 30  1  6
 30 38  1  0
 34 31  1  1
 31 39  1  0
 35 32  1  1
 32 40  1  0
 41 42  1  0
 41 43  1  0
 15 19  2  0
 16 22  2  0
 12 17  1  6
 17 19  1  0
 17 20  1  0
 18 19  1  0
 18 22  1  0
 18 23  1  0
  9 10  1  0
  9 11  1  0
 10 12  1  0
 11  5  1  6
 33 34  1  0
 33 35  1  0
 34 36  1  0
 35 37  1  0
 36 42  1  6
 20 21  2  0
 21 22  1  0
M  CHG  2   2  -1  26  -1
M  END
>  <COMPND>  (73) 
    8629 

>  <AUTHOR>  (73) 
    GENERATED BY OPEN BABEL 3.1.1

>  <MASTER>  (73) 
        0    0    0    0    0    0    0    0   58    0   58    0

>  <minimizedAffinity>  (73) 
-7.85735

>  <CNNscore>  (73) 
0.3759314418

>  <CNNaffinity>  (73) 
4.0549769402

>  <CNN_VS>  (73) 
1.5243933201

>  <CNNaffinity_variance>  (73) 
0.4862419069

$$$$
74
     RDKit          3D

 43 45  0  0  0  0  0  0  0  0999 V2000
   17.4562   74.7981   -4.7787 P   0  0  2  0  0  0  0  0  0  0  0  0
   16.4110   74.7466   -3.5449 O   0  0  0  0  0  0  0  0  0  0  0  0
   17.0356   75.6636   -5.9300 O   0  0  0  0  0  0  0  0  0  0  0  0
   17.7195   73.2408   -5.1299 O   0  0  0  0  0  0  0  0  0  0  0  0
   17.8700   72.8703   -6.4893 C   0  0  0  0  0  0  0  0  0  0  0  0
   19.5295   71.4170   -5.5366 O   0  0  0  0  0  0  0  0  0  0  0  0
   20.6900   71.2415   -8.2957 O   0  0  0  0  0  0  0  0  0  0  0  0
   19.3041   68.9025   -8.0840 O   0  0  0  0  0  0  0  0  0  0  0  0
   19.3233   71.3265   -7.8956 C   0  0  1  0  0  0  0  0  0  0  0  0
   18.8613   70.0047   -7.3185 C   0  0  2  0  0  0  0  0  0  0  0  0
   19.2454   72.2470   -6.6840 C   0  0  1  0  0  0  0  0  0  0  0  0
   19.4749   70.0358   -5.9291 C   0  0  2  0  0  0  0  0  0  0  0  0
   20.7650   70.6590   -9.0684 H   0  0  0  0  0  0  0  0  0  0  0  0
   18.8859   68.9273   -8.9588 H   0  0  0  0  0  0  0  0  0  0  0  0
   20.4310   69.1801   -3.4128 O   0  0  0  0  0  0  0  0  0  0  0  0
   16.3879   67.2523   -2.3273 O   0  0  0  0  0  0  0  0  0  0  0  0
   18.6934   69.3087   -4.9688 N   0  0  0  0  0  0  0  0  0  0  0  0
   18.4170   68.2211   -2.8743 N   0  0  0  0  0  0  0  0  0  0  0  0
   19.2687   68.9252   -3.7350 C   0  0  0  0  0  0  0  0  0  0  0  0
   17.3718   68.9835   -5.2545 C   0  0  0  0  0  0  0  0  0  0  0  0
   16.5733   68.3105   -4.4234 C   0  0  0  0  0  0  0  0  0  0  0  0
   17.0971   67.8729   -3.1134 C   0  0  0  0  0  0  0  0  0  0  0  0
   18.7963   67.9432   -2.0090 H   0  0  0  0  0  0  0  0  0  0  0  0
   18.8361   75.2485   -4.0675 O   0  0  0  0  0  0  0  0  0  0  0  0
   20.3489   75.3167   -4.6331 P   0  0  2  0  0  0  0  0  0  0  0  0
   21.0181   76.5035   -3.7607 O   0  0  0  0  0  0  0  0  0  0  0  0
   20.4422   75.5120   -6.1187 O   0  0  0  0  0  0  0  0  0  0  0  0
   21.0490   73.9675   -4.0906 O   0  0  0  0  0  0  0  0  0  0  0  0
   21.9554   74.1161   -1.9058 O   0  0  0  0  0  0  0  0  0  0  0  0
   23.7783   70.6226   -3.1401 O   0  0  0  0  0  0  0  0  0  0  0  0
   21.6591   70.5092   -1.2051 O   0  0  0  0  0  0  0  0  0  0  0  0
   23.4361   72.8097   -5.0053 O   0  0  0  0  0  0  0  0  0  0  0  0
   22.7214   71.5828   -3.0597 C   0  0  1  0  0  0  0  0  0  0  0  0
   22.3065   71.7177   -1.5933 C   0  0  1  0  0  0  0  0  0  0  0  0
   23.2202   72.9207   -3.6026 C   0  0  2  0  0  0  0  0  0  0  0  0
   21.3685   72.9153   -1.3908 C   0  0  1  0  0  0  0  0  0  0  0  0
   22.2356   74.0531   -3.3056 C   0  0  1  0  0  0  0  0  0  0  0  0
   23.4679   69.7707   -2.7974 H   0  0  0  0  0  0  0  0  0  0  0  0
   22.2619   69.7608   -1.3383 H   0  0  0  0  0  0  0  0  0  0  0  0
   24.0613   72.0897   -5.1801 H   0  0  0  0  0  0  0  0  0  0  0  0
   21.0484   74.5607    0.3118 O   0  0  0  0  0  0  0  0  0  0  0  0
   21.0681   73.1633    0.0858 C   0  0  0  0  0  0  0  0  0  0  0  0
   20.8581   74.7336    1.2475 H   0  0  0  0  0  0  0  0  0  0  0  0
 25 28  1  0
 25 24  1  0
 25 26  1  1
 25 27  2  0
  1  4  1  0
  1 24  1  0
  1  2  1  1
  1  3  2  0
  6 11  1  0
  6 12  1  0
 29 36  1  0
 29 37  1  0
  9  7  1  1
  7 13  1  0
 10  8  1  6
  8 14  1  0
 37 28  1  6
  4  5  1  0
 33 30  1  1
 30 38  1  0
 34 31  1  6
 31 39  1  0
 35 32  1  6
 32 40  1  0
 41 42  1  0
 41 43  1  0
 15 19  2  0
 16 22  2  0
 12 17  1  1
 17 19  1  0
 17 20  1  0
 18 19  1  0
 18 22  1  0
 18 23  1  0
  9 10  1  0
  9 11  1  0
 10 12  1  0
 11  5  1  1
 33 34  1  0
 33 35  1  0
 34 36  1  0
 35 37  1  0
 36 42  1  1
 20 21  2  0
 21 22  1  0
M  CHG  2   2  -1  26  -1
M  END
>  <COMPND>  (74) 
    8629 

>  <AUTHOR>  (74) 
    GENERATED BY OPEN BABEL 3.1.1

>  <MASTER>  (74) 
        0    0    0    0    0    0    0    0   58    0   58    0

>  <minimizedAffinity>  (74) 
-6.38126

>  <CNNscore>  (74) 
0.3719164133

>  <CNNaffinity>  (74) 
4.0946741104

>  <CNN_VS>  (74) 
1.5228765011

>  <CNNaffinity_variance>  (74) 
0.5124422908

$$$$
75
     RDKit          3D

 43 45  0  0  0  0  0  0  0  0999 V2000
   22.3085   73.5596   -5.7749 P   0  0  2  0  0  0  0  0  0  0  0  0
   23.0503   72.8857   -7.0450 O   0  0  0  0  0  0  0  0  0  0  0  0
   22.8854   74.8700   -5.3260 O   0  0  0  0  0  0  0  0  0  0  0  0
   22.2918   72.3823   -4.6652 O   0  0  0  0  0  0  0  0  0  0  0  0
   21.0681   71.7178   -4.4029 C   0  0  0  0  0  0  0  0  0  0  0  0
   19.1564   71.8934   -2.9578 O   0  0  0  0  0  0  0  0  0  0  0  0
   21.1135   71.9632   -0.6872 O   0  0  0  0  0  0  0  0  0  0  0  0
   20.2348   69.3822   -0.6354 O   0  0  0  0  0  0  0  0  0  0  0  0
   21.1744   71.2283   -1.9085 C   0  0  1  0  0  0  0  0  0  0  0  0
   20.2040   70.0661   -1.8716 C   0  0  2  0  0  0  0  0  0  0  0  0
   20.5850   72.0998   -3.0105 C   0  0  1  0  0  0  0  0  0  0  0  0
   18.8749   70.7572   -2.1245 C   0  0  2  0  0  0  0  0  0  0  0  0
   21.4847   71.4270    0.0315 H   0  0  0  0  0  0  0  0  0  0  0  0
   21.1003   68.9595   -0.5211 H   0  0  0  0  0  0  0  0  0  0  0  0
   16.0887   70.7764   -1.6610 O   0  0  0  0  0  0  0  0  0  0  0  0
   15.3644   67.4481   -4.7656 O   0  0  0  0  0  0  0  0  0  0  0  0
   17.9347   69.9064   -2.7980 N   0  0  0  0  0  0  0  0  0  0  0  0
   15.7303   69.1193   -3.2074 N   0  0  0  0  0  0  0  0  0  0  0  0
   16.5568   69.9946   -2.4913 C   0  0  0  0  0  0  0  0  0  0  0  0
   18.3815   68.9976   -3.7510 C   0  0  0  0  0  0  0  0  0  0  0  0
   17.5806   68.1690   -4.4242 C   0  0  0  0  0  0  0  0  0  0  0  0
   16.1269   68.1974   -4.1632 C   0  0  0  0  0  0  0  0  0  0  0  0
   14.7665   69.1626   -3.0101 H   0  0  0  0  0  0  0  0  0  0  0  0
   20.7656   73.6318   -6.2513 O   0  0  0  0  0  0  0  0  0  0  0  0
   19.6071   74.7145   -5.9372 P   0  0  2  0  0  0  0  0  0  0  0  0
   19.8200   75.8305   -7.0891 O   0  0  0  0  0  0  0  0  0  0  0  0
   19.6345   75.2564   -4.5373 O   0  0  0  0  0  0  0  0  0  0  0  0
   18.2326   73.9705   -6.3395 O   0  0  0  0  0  0  0  0  0  0  0  0
   18.2225   72.6796   -8.3271 O   0  0  0  0  0  0  0  0  0  0  0  0
   14.1509   73.1484   -7.8241 O   0  0  0  0  0  0  0  0  0  0  0  0
   15.3565   70.5908   -7.3213 O   0  0  0  0  0  0  0  0  0  0  0  0
   15.9429   75.3380   -7.2126 O   0  0  0  0  0  0  0  0  0  0  0  0
   15.5051   72.9768   -7.3977 C   0  0  1  0  0  0  0  0  0  0  0  0
   16.0279   71.6616   -7.9791 C   0  0  1  0  0  0  0  0  0  0  0  0
   16.3391   74.1548   -7.8979 C   0  0  2  0  0  0  0  0  0  0  0  0
   17.5458   71.5370   -7.7902 C   0  0  1  0  0  0  0  0  0  0  0  0
   17.8367   73.9080   -7.7073 C   0  0  1  0  0  0  0  0  0  0  0  0
   13.6159   72.4039   -7.5094 H   0  0  0  0  0  0  0  0  0  0  0  0
   14.3989   70.6815   -7.4479 H   0  0  0  0  0  0  0  0  0  0  0  0
   14.9930   75.4833   -7.3412 H   0  0  0  0  0  0  0  0  0  0  0  0
   17.8628   70.4381   -9.8880 O   0  0  0  0  0  0  0  0  0  0  0  0
   18.1116   70.3091   -8.5003 C   0  0  0  0  0  0  0  0  0  0  0  0
   18.2178   69.6637  -10.3528 H   0  0  0  0  0  0  0  0  0  0  0  0
 25 28  1  0
 25 24  1  0
 25 26  1  6
 25 27  2  0
  1  4  1  0
  1 24  1  0
  1  2  1  6
  1  3  2  0
  6 11  1  0
  6 12  1  0
 29 36  1  0
 29 37  1  0
  9  7  1  1
  7 13  1  0
 10  8  1  1
  8 14  1  0
 37 28  1  1
  4  5  1  0
 33 30  1  6
 30 38  1  0
 34 31  1  1
 31 39  1  0
 35 32  1  1
 32 40  1  0
 41 42  1  0
 41 43  1  0
 15 19  2  0
 16 22  2  0
 12 17  1  6
 17 19  1  0
 17 20  1  0
 18 19  1  0
 18 22  1  0
 18 23  1  0
  9 10  1  0
  9 11  1  0
 10 12  1  0
 11  5  1  6
 33 34  1  0
 33 35  1  0
 34 36  1  0
 35 37  1  0
 36 42  1  6
 20 21  2  0
 21 22  1  0
M  CHG  2   2  -1  26  -1
M  END
>  <COMPND>  (75) 
    8629 

>  <AUTHOR>  (75) 
    GENERATED BY OPEN BABEL 3.1.1

>  <MASTER>  (75) 
        0    0    0    0    0    0    0    0   58    0   58    0

>  <minimizedAffinity>  (75) 
-6.63831

>  <CNNscore>  (75) 
0.3665705621

>  <CNNaffinity>  (75) 
4.1278276443

>  <CNN_VS>  (75) 
1.5131400824

>  <CNNaffinity_variance>  (75) 
0.6650521159

$$$$
76
     RDKit          3D

 43 45  0  0  0  0  0  0  0  0999 V2000
   20.8731   74.8676   -6.2252 P   0  0  2  0  0  0  0  0  0  0  0  0
   20.5406   75.3233   -4.7089 O   0  0  0  0  0  0  0  0  0  0  0  0
   20.4961   75.8626   -7.2832 O   0  0  0  0  0  0  0  0  0  0  0  0
   20.1820   73.4102   -6.3531 O   0  0  0  0  0  0  0  0  0  0  0  0
   18.8167   73.3397   -6.7257 C   0  0  0  0  0  0  0  0  0  0  0  0
   19.2342   70.9735   -6.7491 O   0  0  0  0  0  0  0  0  0  0  0  0
   16.9271   70.7746   -8.6540 O   0  0  0  0  0  0  0  0  0  0  0  0
   15.8121   70.0045   -6.2875 O   0  0  0  0  0  0  0  0  0  0  0  0
   17.1020   71.6440   -7.5365 C   0  0  1  0  0  0  0  0  0  0  0  0
   16.9211   70.8791   -6.2419 C   0  0  2  0  0  0  0  0  0  0  0  0
   18.5731   72.0351   -7.4719 C   0  0  1  0  0  0  0  0  0  0  0  0
   18.2436   70.1405   -6.1249 C   0  0  2  0  0  0  0  0  0  0  0  0
   15.9950   70.5115   -8.7161 H   0  0  0  0  0  0  0  0  0  0  0  0
   14.9950   70.5219   -6.3620 H   0  0  0  0  0  0  0  0  0  0  0  0
   17.3132   67.9850   -4.5546 O   0  0  0  0  0  0  0  0  0  0  0  0
   19.7635   69.3520   -0.8983 O   0  0  0  0  0  0  0  0  0  0  0  0
   18.6225   69.9088   -4.7595 N   0  0  0  0  0  0  0  0  0  0  0  0
   18.5342   68.6673   -2.7353 N   0  0  0  0  0  0  0  0  0  0  0  0
   18.0974   68.7973   -4.0599 C   0  0  0  0  0  0  0  0  0  0  0  0
   19.5055   70.7780   -4.1283 C   0  0  0  0  0  0  0  0  0  0  0  0
   19.9111   70.6408   -2.8642 C   0  0  0  0  0  0  0  0  0  0  0  0
   19.4095   69.5056   -2.0631 C   0  0  0  0  0  0  0  0  0  0  0  0
   18.1812   67.9005   -2.2282 H   0  0  0  0  0  0  0  0  0  0  0  0
   22.4499   74.5177   -6.1621 O   0  0  0  0  0  0  0  0  0  0  0  0
   23.4534   73.9331   -7.2865 P   0  0  2  0  0  0  0  0  0  0  0  0
   22.7714   72.5244   -7.6963 O   0  0  0  0  0  0  0  0  0  0  0  0
   24.8821   73.8224   -6.8386 O   0  0  0  0  0  0  0  0  0  0  0  0
   23.2268   74.8845   -8.5705 O   0  0  0  0  0  0  0  0  0  0  0  0
   25.2305   76.1165   -8.8604 O   0  0  0  0  0  0  0  0  0  0  0  0
   22.9989   77.7557  -11.9237 O   0  0  0  0  0  0  0  0  0  0  0  0
   25.1549   75.9623  -12.5428 O   0  0  0  0  0  0  0  0  0  0  0  0
   21.7342   77.1110   -9.4010 O   0  0  0  0  0  0  0  0  0  0  0  0
   23.4456   76.7160  -11.0491 C   0  0  1  0  0  0  0  0  0  0  0  0
   24.9507   76.5317  -11.2527 C   0  0  1  0  0  0  0  0  0  0  0  0
   23.1429   77.1136   -9.6056 C   0  0  2  0  0  0  0  0  0  0  0  0
   25.5497   75.6263  -10.1680 C   0  0  1  0  0  0  0  0  0  0  0  0
   23.8256   76.1773   -8.6069 C   0  0  1  0  0  0  0  0  0  0  0  0
   23.1877   77.5093  -12.8420 H   0  0  0  0  0  0  0  0  0  0  0  0
   24.7717   76.5435  -13.2184 H   0  0  0  0  0  0  0  0  0  0  0  0
   21.3138   77.7076  -10.0390 H   0  0  0  0  0  0  0  0  0  0  0  0
   27.5300   76.6669  -11.0072 O   0  0  0  0  0  0  0  0  0  0  0  0
   27.0725   75.5558  -10.2585 C   0  0  0  0  0  0  0  0  0  0  0  0
   28.4977   76.6353  -11.0728 H   0  0  0  0  0  0  0  0  0  0  0  0
 25 28  1  0
 25 24  1  0
 25 26  1  6
 25 27  2  0
  1  4  1  0
  1 24  1  0
  1  2  1  1
  1  3  2  0
  6 11  1  0
  6 12  1  0
 29 36  1  0
 29 37  1  0
  9  7  1  6
  7 13  1  0
 10  8  1  6
  8 14  1  0
 37 28  1  6
  4  5  1  0
 33 30  1  6
 30 38  1  0
 34 31  1  6
 31 39  1  0
 35 32  1  6
 32 40  1  0
 41 42  1  0
 41 43  1  0
 15 19  2  0
 16 22  2  0
 12 17  1  1
 17 19  1  0
 17 20  1  0
 18 19  1  0
 18 22  1  0
 18 23  1  0
  9 10  1  0
  9 11  1  0
 10 12  1  0
 11  5  1  1
 33 34  1  0
 33 35  1  0
 34 36  1  0
 35 37  1  0
 36 42  1  6
 20 21  2  0
 21 22  1  0
M  CHG  2   2  -1  26  -1
M  END
>  <COMPND>  (76) 
    8629 

>  <AUTHOR>  (76) 
    GENERATED BY OPEN BABEL 3.1.1

>  <MASTER>  (76) 
        0    0    0    0    0    0    0    0   58    0   58    0

>  <minimizedAffinity>  (76) 
-6.61957

>  <CNNscore>  (76) 
0.3612099588

>  <CNNaffinity>  (76) 
4.1200056076

>  <CNN_VS>  (76) 
1.4881870747

>  <CNNaffinity_variance>  (76) 
0.1698063612

$$$$
77
     RDKit          3D

 43 45  0  0  0  0  0  0  0  0999 V2000
   19.5151   69.7387   -3.9828 P   0  0  2  0  0  0  0  0  0  0  0  0
   19.0785   68.2821   -3.4305 O   0  0  0  0  0  0  0  0  0  0  0  0
   18.6655   70.8790   -3.5038 O   0  0  0  0  0  0  0  0  0  0  0  0
   19.5857   69.5406   -5.5870 O   0  0  0  0  0  0  0  0  0  0  0  0
   19.3622   70.6666   -6.4178 C   0  0  0  0  0  0  0  0  0  0  0  0
   17.0942   70.4601   -7.1841 O   0  0  0  0  0  0  0  0  0  0  0  0
   18.2379   70.3447   -9.9535 O   0  0  0  0  0  0  0  0  0  0  0  0
   17.3694   72.9237   -9.7760 O   0  0  0  0  0  0  0  0  0  0  0  0
   18.6747   71.1047   -8.8279 C   0  0  1  0  0  0  0  0  0  0  0  0
   17.7339   72.2653   -8.5800 C   0  0  2  0  0  0  0  0  0  0  0  0
   18.4682   70.2557   -7.5798 C   0  0  1  0  0  0  0  0  0  0  0  0
   16.5568   71.5788   -7.9084 C   0  0  2  0  0  0  0  0  0  0  0  0
   18.3604   70.8663  -10.7628 H   0  0  0  0  0  0  0  0  0  0  0  0
   18.1520   73.3444  -10.1651 H   0  0  0  0  0  0  0  0  0  0  0  0
   14.3597   73.2155   -8.5954 O   0  0  0  0  0  0  0  0  0  0  0  0
   14.0027   74.8531   -4.3021 O   0  0  0  0  0  0  0  0  0  0  0  0
   15.8702   72.4426   -6.9897 N   0  0  0  0  0  0  0  0  0  0  0  0
   14.1836   74.0294   -6.4571 N   0  0  0  0  0  0  0  0  0  0  0  0
   14.7791   73.2240   -7.4362 C   0  0  0  0  0  0  0  0  0  0  0  0
   16.2799   72.5085   -5.6625 C   0  0  0  0  0  0  0  0  0  0  0  0
   15.7022   73.2827   -4.7415 C   0  0  0  0  0  0  0  0  0  0  0  0
   14.5552   74.1305   -5.1257 C   0  0  0  0  0  0  0  0  0  0  0  0
   13.4217   74.5829   -6.7452 H   0  0  0  0  0  0  0  0  0  0  0  0
   21.0722   69.8360   -3.5598 O   0  0  0  0  0  0  0  0  0  0  0  0
   21.9210   71.0464   -2.9059 P   0  0  2  0  0  0  0  0  0  0  0  0
   23.4560   70.5983   -3.1517 O   0  0  0  0  0  0  0  0  0  0  0  0
   21.5812   71.3315   -1.4716 O   0  0  0  0  0  0  0  0  0  0  0  0
   21.6945   72.2918   -3.9072 O   0  0  0  0  0  0  0  0  0  0  0  0
   23.2022   72.7551   -5.6760 O   0  0  0  0  0  0  0  0  0  0  0  0
   21.5827   76.5218   -5.1856 O   0  0  0  0  0  0  0  0  0  0  0  0
   20.8750   74.9633   -7.4917 O   0  0  0  0  0  0  0  0  0  0  0  0
   22.1139   74.8660   -2.8714 O   0  0  0  0  0  0  0  0  0  0  0  0
   21.5724   75.0919   -5.2074 C   0  0  1  0  0  0  0  0  0  0  0  0
   21.9494   74.6310   -6.6168 C   0  0  1  0  0  0  0  0  0  0  0  0
   22.5789   74.5697   -4.1838 C   0  0  2  0  0  0  0  0  0  0  0  0
   22.2197   73.1208   -6.6521 C   0  0  1  0  0  0  0  0  0  0  0  0
   22.8115   73.0655   -4.3370 C   0  0  1  0  0  0  0  0  0  0  0  0
   20.9454   76.8598   -5.8330 H   0  0  0  0  0  0  0  0  0  0  0  0
   20.7143   75.9195   -7.4597 H   0  0  0  0  0  0  0  0  0  0  0  0
   21.9707   75.8211   -2.7871 H   0  0  0  0  0  0  0  0  0  0  0  0
   23.3287   73.7811   -8.6628 O   0  0  0  0  0  0  0  0  0  0  0  0
   22.7495   72.6662   -8.0103 C   0  0  0  0  0  0  0  0  0  0  0  0
   23.6706   73.5067   -9.5285 H   0  0  0  0  0  0  0  0  0  0  0  0
 25 28  1  0
 25 24  1  0
 25 26  1  1
 25 27  2  0
  1  4  1  0
  1 24  1  0
  1  2  1  1
  1  3  2  0
  6 11  1  0
  6 12  1  0
 29 36  1  0
 29 37  1  0
  9  7  1  6
  7 13  1  0
 10  8  1  6
  8 14  1  0
 37 28  1  6
  4  5  1  0
 33 30  1  6
 30 38  1  0
 34 31  1  6
 31 39  1  0
 35 32  1  1
 32 40  1  0
 41 42  1  0
 41 43  1  0
 15 19  2  0
 16 22  2  0
 12 17  1  1
 17 19  1  0
 17 20  1  0
 18 19  1  0
 18 22  1  0
 18 23  1  0
  9 10  1  0
  9 11  1  0
 10 12  1  0
 11  5  1  1
 33 34  1  0
 33 35  1  0
 34 36  1  0
 35 37  1  0
 36 42  1  6
 20 21  2  0
 21 22  1  0
M  CHG  2   2  -1  26  -1
M  END
>  <COMPND>  (77) 
    8629 

>  <AUTHOR>  (77) 
    GENERATED BY OPEN BABEL 3.1.1

>  <MASTER>  (77) 
        0    0    0    0    0    0    0    0   58    0   58    0

>  <minimizedAffinity>  (77) 
-6.99745

>  <CNNscore>  (77) 
0.3572153449

>  <CNNaffinity>  (77) 
4.0310411453

>  <CNN_VS>  (77) 
1.4399497509

>  <CNNaffinity_variance>  (77) 
0.4175997674

$$$$
78
     RDKit          3D

 43 45  0  0  0  0  0  0  0  0999 V2000
   17.1745   70.4474   -2.0991 P   0  0  2  0  0  0  0  0  0  0  0  0
   16.4032   71.0031   -3.4081 O   0  0  0  0  0  0  0  0  0  0  0  0
   16.7849   69.0620   -1.6745 O   0  0  0  0  0  0  0  0  0  0  0  0
   16.9526   71.6091   -0.9950 O   0  0  0  0  0  0  0  0  0  0  0  0
   17.6499   72.8327   -1.1516 C   0  0  0  0  0  0  0  0  0  0  0  0
   19.7796   72.4680   -0.1003 O   0  0  0  0  0  0  0  0  0  0  0  0
   19.0556   74.7331    1.7262 O   0  0  0  0  0  0  0  0  0  0  0  0
   20.7477   75.9210   -0.0521 O   0  0  0  0  0  0  0  0  0  0  0  0
   18.7677   74.5653    0.3390 C   0  0  1  0  0  0  0  0  0  0  0  0
   20.0154   74.7940   -0.4884 C   0  0  2  0  0  0  0  0  0  0  0  0
   18.4892   73.0877    0.0929 C   0  0  1  0  0  0  0  0  0  0  0  0
   20.7709   73.4916   -0.2859 C   0  0  2  0  0  0  0  0  0  0  0  0
   19.2365   75.6691    1.9078 H   0  0  0  0  0  0  0  0  0  0  0  0
   20.2252   76.7242   -0.2020 H   0  0  0  0  0  0  0  0  0  0  0  0
   22.9053   71.6431   -0.2133 O   0  0  0  0  0  0  0  0  0  0  0  0
   23.8352   72.2626   -4.6846 O   0  0  0  0  0  0  0  0  0  0  0  0
   21.5873   73.1505   -1.4165 N   0  0  0  0  0  0  0  0  0  0  0  0
   23.3665   71.9529   -2.4397 N   0  0  0  0  0  0  0  0  0  0  0  0
   22.6347   72.2108   -1.2735 C   0  0  0  0  0  0  0  0  0  0  0  0
   21.3459   73.7451   -2.6502 C   0  0  0  0  0  0  0  0  0  0  0  0
   22.0536   73.4892   -3.7524 C   0  0  0  0  0  0  0  0  0  0  0  0
   23.1658   72.5192   -3.6886 C   0  0  0  0  0  0  0  0  0  0  0  0
   24.1014   71.3018   -2.3640 H   0  0  0  0  0  0  0  0  0  0  0  0
   18.7323   70.6162   -2.4961 O   0  0  0  0  0  0  0  0  0  0  0  0
   19.5204   70.2832   -3.8676 P   0  0  2  0  0  0  0  0  0  0  0  0
   18.7802   68.9493   -4.4063 O   0  0  0  0  0  0  0  0  0  0  0  0
   21.0064   70.1442   -3.7053 O   0  0  0  0  0  0  0  0  0  0  0  0
   19.0652   71.4441   -4.8924 O   0  0  0  0  0  0  0  0  0  0  0  0
   19.8554   70.6287   -6.9727 O   0  0  0  0  0  0  0  0  0  0  0  0
   17.8867   74.0094   -8.2940 O   0  0  0  0  0  0  0  0  0  0  0  0
   16.7579   71.4192   -8.8082 O   0  0  0  0  0  0  0  0  0  0  0  0
   19.3672   74.0797   -5.8075 O   0  0  0  0  0  0  0  0  0  0  0  0
   18.0992   72.8682   -7.4585 C   0  0  1  0  0  0  0  0  0  0  0  0
   18.0893   71.6189   -8.3415 C   0  0  1  0  0  0  0  0  0  0  0  0
   19.4434   73.0135   -6.7476 C   0  0  2  0  0  0  0  0  0  0  0  0
   18.5734   70.3873   -7.5644 C   0  0  1  0  0  0  0  0  0  0  0  0
   19.8548   71.7173   -6.0470 C   0  0  1  0  0  0  0  0  0  0  0  0
   17.0346   73.9237   -8.7479 H   0  0  0  0  0  0  0  0  0  0  0  0
   16.4641   72.2041   -9.2968 H   0  0  0  0  0  0  0  0  0  0  0  0
   19.1063   74.8945   -6.2633 H   0  0  0  0  0  0  0  0  0  0  0  0
   20.0681   68.7295   -8.4167 O   0  0  0  0  0  0  0  0  0  0  0  0
   18.7216   69.1638   -8.4661 C   0  0  0  0  0  0  0  0  0  0  0  0
   20.1773   67.9511   -8.9858 H   0  0  0  0  0  0  0  0  0  0  0  0
 25 28  1  0
 25 24  1  0
 25 26  1  6
 25 27  2  0
  1  4  1  0
  1 24  1  0
  1  2  1  6
  1  3  2  0
  6 11  1  0
  6 12  1  0
 29 36  1  0
 29 37  1  0
  9  7  1  1
  7 13  1  0
 10  8  1  1
  8 14  1  0
 37 28  1  1
  4  5  1  0
 33 30  1  6
 30 38  1  0
 34 31  1  1
 31 39  1  0
 35 32  1  1
 32 40  1  0
 41 42  1  0
 41 43  1  0
 15 19  2  0
 16 22  2  0
 12 17  1  6
 17 19  1  0
 17 20  1  0
 18 19  1  0
 18 22  1  0
 18 23  1  0
  9 10  1  0
  9 11  1  0
 10 12  1  0
 11  5  1  6
 33 34  1  0
 33 35  1  0
 34 36  1  0
 35 37  1  0
 36 42  1  6
 20 21  2  0
 21 22  1  0
M  CHG  2   2  -1  26  -1
M  END
>  <COMPND>  (78) 
    8629 

>  <AUTHOR>  (78) 
    GENERATED BY OPEN BABEL 3.1.1

>  <MASTER>  (78) 
        0    0    0    0    0    0    0    0   58    0   58    0

>  <minimizedAffinity>  (78) 
-7.11815

>  <CNNscore>  (78) 
0.3542826772

>  <CNNaffinity>  (78) 
3.8969893456

>  <CNN_VS>  (78) 
1.3806358576

>  <CNNaffinity_variance>  (78) 
0.4332170486

$$$$
79
     RDKit          3D

 43 45  0  0  0  0  0  0  0  0999 V2000
   18.0716   68.9407   -4.3338 P   0  0  2  0  0  0  0  0  0  0  0  0
   19.0571   68.1479   -3.3250 O   0  0  0  0  0  0  0  0  0  0  0  0
   16.7638   68.2583   -4.6088 O   0  0  0  0  0  0  0  0  0  0  0  0
   18.9963   69.2353   -5.6284 O   0  0  0  0  0  0  0  0  0  0  0  0
   18.8210   70.4595   -6.3200 C   0  0  0  0  0  0  0  0  0  0  0  0
   16.6667   70.4042   -7.3830 O   0  0  0  0  0  0  0  0  0  0  0  0
   18.1551   70.5153   -9.9836 O   0  0  0  0  0  0  0  0  0  0  0  0
   17.3264   73.0934   -9.6625 O   0  0  0  0  0  0  0  0  0  0  0  0
   18.4594   71.1490   -8.7422 C   0  0  1  0  0  0  0  0  0  0  0  0
   17.5196   72.3118   -8.5012 C   0  0  2  0  0  0  0  0  0  0  0  0
   18.0756   70.1921   -7.6204 C   0  0  1  0  0  0  0  0  0  0  0  0
   16.2512   71.6046   -8.0548 C   0  0  2  0  0  0  0  0  0  0  0  0
   18.3919   71.1073  -10.7153 H   0  0  0  0  0  0  0  0  0  0  0  0
   18.1613   73.5226   -9.9061 H   0  0  0  0  0  0  0  0  0  0  0  0
   14.2553   73.4368   -8.8532 O   0  0  0  0  0  0  0  0  0  0  0  0
   13.3216   74.6009   -4.4926 O   0  0  0  0  0  0  0  0  0  0  0  0
   15.4707   72.3995   -7.1490 N   0  0  0  0  0  0  0  0  0  0  0  0
   13.7919   74.0148   -6.6813 N   0  0  0  0  0  0  0  0  0  0  0  0
   14.4941   73.2901   -7.6527 C   0  0  0  0  0  0  0  0  0  0  0  0
   15.6769   72.2914   -5.7780 C   0  0  0  0  0  0  0  0  0  0  0  0
   14.9997   72.9906   -4.8649 C   0  0  0  0  0  0  0  0  0  0  0  0
   13.9613   73.9434   -5.3077 C   0  0  0  0  0  0  0  0  0  0  0  0
   13.1067   74.6417   -7.0088 H   0  0  0  0  0  0  0  0  0  0  0  0
   17.9389   70.3962   -3.6433 O   0  0  0  0  0  0  0  0  0  0  0  0
   17.5164   70.8248   -2.1431 P   0  0  2  0  0  0  0  0  0  0  0  0
   17.7884   69.4818   -1.2829 O   0  0  0  0  0  0  0  0  0  0  0  0
   16.1194   71.3622   -2.0270 O   0  0  0  0  0  0  0  0  0  0  0  0
   18.6692   71.8513   -1.6715 O   0  0  0  0  0  0  0  0  0  0  0  0
   20.0616   73.5099   -2.6344 O   0  0  0  0  0  0  0  0  0  0  0  0
   22.9342   71.3118   -0.6427 O   0  0  0  0  0  0  0  0  0  0  0  0
   22.1854   73.8993    0.3534 O   0  0  0  0  0  0  0  0  0  0  0  0
   20.7271   69.9626   -1.9419 O   0  0  0  0  0  0  0  0  0  0  0  0
   21.6437   71.8967   -0.8371 C   0  0  1  0  0  0  0  0  0  0  0  0
   21.8146   73.4140   -0.9340 C   0  0  1  0  0  0  0  0  0  0  0  0
   21.0324   71.3413   -2.1221 C   0  0  2  0  0  0  0  0  0  0  0  0
   20.5195   74.0882   -1.4065 C   0  0  1  0  0  0  0  0  0  0  0  0
   19.7764   72.1136   -2.5298 C   0  0  1  0  0  0  0  0  0  0  0  0
   23.3277   71.6599    0.1719 H   0  0  0  0  0  0  0  0  0  0  0  0
   23.0042   73.4653    0.6403 H   0  0  0  0  0  0  0  0  0  0  0  0
   21.5303   69.4847   -1.6843 H   0  0  0  0  0  0  0  0  0  0  0  0
   20.4887   75.8353   -3.0362 O   0  0  0  0  0  0  0  0  0  0  0  0
   20.7123   75.5816   -1.6614 C   0  0  0  0  0  0  0  0  0  0  0  0
   20.6076   76.7820   -3.2131 H   0  0  0  0  0  0  0  0  0  0  0  0
 25 28  1  0
 25 24  1  0
 25 26  1  1
 25 27  2  0
  1  4  1  0
  1 24  1  0
  1  2  1  1
  1  3  2  0
  6 11  1  0
  6 12  1  0
 29 36  1  0
 29 37  1  0
  9  7  1  6
  7 13  1  0
 10  8  1  6
  8 14  1  0
 37 28  1  1
  4  5  1  0
 33 30  1  6
 30 38  1  0
 34 31  1  1
 31 39  1  0
 35 32  1  1
 32 40  1  0
 41 42  1  0
 41 43  1  0
 15 19  2  0
 16 22  2  0
 12 17  1  1
 17 19  1  0
 17 20  1  0
 18 19  1  0
 18 22  1  0
 18 23  1  0
  9 10  1  0
  9 11  1  0
 10 12  1  0
 11  5  1  1
 33 34  1  0
 33 35  1  0
 34 36  1  0
 35 37  1  0
 36 42  1  6
 20 21  2  0
 21 22  1  0
M  CHG  2   2  -1  26  -1
M  END
>  <COMPND>  (79) 
    8629 

>  <AUTHOR>  (79) 
    GENERATED BY OPEN BABEL 3.1.1

>  <MASTER>  (79) 
        0    0    0    0    0    0    0    0   58    0   58    0

>  <minimizedAffinity>  (79) 
-6.98132

>  <CNNscore>  (79) 
0.3196238577

>  <CNNaffinity>  (79) 
3.9674639702

>  <CNN_VS>  (79) 
1.2680960894

>  <CNNaffinity_variance>  (79) 
0.2402873933

$$$$
80
     RDKit          3D

 43 45  0  0  0  0  0  0  0  0999 V2000
   19.4855   69.5992   -2.3211 P   0  0  2  0  0  0  0  0  0  0  0  0
   19.8771   69.4421   -0.7593 O   0  0  0  0  0  0  0  0  0  0  0  0
   18.7179   68.4477   -2.9010 O   0  0  0  0  0  0  0  0  0  0  0  0
   20.8934   69.9395   -3.0422 O   0  0  0  0  0  0  0  0  0  0  0  0
   21.2944   71.2952   -3.1366 C   0  0  0  0  0  0  0  0  0  0  0  0
   23.0791   72.8281   -2.6480 O   0  0  0  0  0  0  0  0  0  0  0  0
   24.1859   70.6811   -0.8714 O   0  0  0  0  0  0  0  0  0  0  0  0
   22.9836   72.3630    0.9069 O   0  0  0  0  0  0  0  0  0  0  0  0
   22.8261   71.0328   -1.1222 C   0  0  1  0  0  0  0  0  0  0  0  0
   22.4774   72.3241   -0.4119 C   0  0  2  0  0  0  0  0  0  0  0  0
   22.7076   71.4336   -2.5873 C   0  0  1  0  0  0  0  0  0  0  0  0
   23.1187   73.3637   -1.3152 C   0  0  2  0  0  0  0  0  0  0  0  0
   24.2863   70.4211    0.0582 H   0  0  0  0  0  0  0  0  0  0  0  0
   22.5447   71.6835    1.4420 H   0  0  0  0  0  0  0  0  0  0  0  0
   23.5208   75.3879    0.6132 O   0  0  0  0  0  0  0  0  0  0  0  0
   20.3648   78.1244   -1.3340 O   0  0  0  0  0  0  0  0  0  0  0  0
   22.4159   74.6155   -1.2946 N   0  0  0  0  0  0  0  0  0  0  0  0
   21.9492   76.7489   -0.3580 N   0  0  0  0  0  0  0  0  0  0  0  0
   22.6917   75.5636   -0.2819 C   0  0  0  0  0  0  0  0  0  0  0  0
   21.4655   74.8928   -2.2711 C   0  0  0  0  0  0  0  0  0  0  0  0
   20.7651   76.0274   -2.3290 C   0  0  0  0  0  0  0  0  0  0  0  0
   20.9929   77.0705   -1.3082 C   0  0  0  0  0  0  0  0  0  0  0  0
   22.1241   77.4240    0.3373 H   0  0  0  0  0  0  0  0  0  0  0  0
   18.7060   71.0148   -2.3597 O   0  0  0  0  0  0  0  0  0  0  0  0
   17.4386   71.5052   -3.2350 P   0  0  2  0  0  0  0  0  0  0  0  0
   17.4289   73.1072   -3.0087 O   0  0  0  0  0  0  0  0  0  0  0  0
   16.1480   70.8226   -2.8850 O   0  0  0  0  0  0  0  0  0  0  0  0
   17.9024   71.3130   -4.7689 O   0  0  0  0  0  0  0  0  0  0  0  0
   16.2257   70.6661   -6.3138 O   0  0  0  0  0  0  0  0  0  0  0  0
   19.5733   69.7303   -8.5429 O   0  0  0  0  0  0  0  0  0  0  0  0
   17.9861   72.0142   -9.2588 O   0  0  0  0  0  0  0  0  0  0  0  0
   19.5549   69.2403   -5.6900 O   0  0  0  0  0  0  0  0  0  0  0  0
   18.8007   70.4875   -7.6075 C   0  0  1  0  0  0  0  0  0  0  0  0
   17.5617   71.0209   -8.3295 C   0  0  1  0  0  0  0  0  0  0  0  0
   18.3975   69.5826   -6.4448 C   0  0  2  0  0  0  0  0  0  0  0  0
   16.5541   71.6146   -7.3357 C   0  0  1  0  0  0  0  0  0  0  0  0
   17.3558   70.2497   -5.5448 C   0  0  1  0  0  0  0  0  0  0  0  0
   19.8329   70.2992   -9.2835 H   0  0  0  0  0  0  0  0  0  0  0  0
   18.6223   71.6265   -9.8802 H   0  0  0  0  0  0  0  0  0  0  0  0
   20.2065   68.8186   -6.2709 H   0  0  0  0  0  0  0  0  0  0  0  0
   15.4532   73.2156   -8.7263 O   0  0  0  0  0  0  0  0  0  0  0  0
   15.2448   72.0090   -8.0157 C   0  0  0  0  0  0  0  0  0  0  0  0
   14.6283   73.4787   -9.1644 H   0  0  0  0  0  0  0  0  0  0  0  0
 25 28  1  0
 25 24  1  0
 25 26  1  6
 25 27  2  0
  1  4  1  0
  1 24  1  0
  1  2  1  1
  1  3  2  0
  6 11  1  0
  6 12  1  0
 29 36  1  0
 29 37  1  0
  9  7  1  6
  7 13  1  0
 10  8  1  1
  8 14  1  0
 37 28  1  6
  4  5  1  0
 33 30  1  6
 30 38  1  0
 34 31  1  6
 31 39  1  0
 35 32  1  1
 32 40  1  0
 41 42  1  0
 41 43  1  0
 15 19  2  0
 16 22  2  0
 12 17  1  6
 17 19  1  0
 17 20  1  0
 18 19  1  0
 18 22  1  0
 18 23  1  0
  9 10  1  0
  9 11  1  0
 10 12  1  0
 11  5  1  1
 33 34  1  0
 33 35  1  0
 34 36  1  0
 35 37  1  0
 36 42  1  6
 20 21  2  0
 21 22  1  0
M  CHG  2   2  -1  26  -1
M  END
>  <COMPND>  (80) 
    8629 

>  <AUTHOR>  (80) 
    GENERATED BY OPEN BABEL 3.1.1

>  <MASTER>  (80) 
        0    0    0    0    0    0    0    0   58    0   58    0

>  <minimizedAffinity>  (80) 
-7.38501

>  <CNNscore>  (80) 
0.3050403595

>  <CNNaffinity>  (80) 
4.0770883560

>  <CNN_VS>  (80) 
1.2436765432

>  <CNNaffinity_variance>  (80) 
0.1702057570

$$$$
81
     RDKit          3D

 43 45  0  0  0  0  0  0  0  0999 V2000
   20.4343   71.3378   -1.4611 P   0  0  2  0  0  0  0  0  0  0  0  0
   19.3942   71.3994   -0.2235 O   0  0  0  0  0  0  0  0  0  0  0  0
   20.2449   72.4019   -2.5018 O   0  0  0  0  0  0  0  0  0  0  0  0
   20.3215   69.8120   -1.9877 O   0  0  0  0  0  0  0  0  0  0  0  0
   19.7074   69.5734   -3.2422 C   0  0  0  0  0  0  0  0  0  0  0  0
   17.7568   70.5692   -4.2307 O   0  0  0  0  0  0  0  0  0  0  0  0
   16.1615   68.7029   -2.5093 O   0  0  0  0  0  0  0  0  0  0  0  0
   16.0972   67.4701   -4.9409 O   0  0  0  0  0  0  0  0  0  0  0  0
   17.4104   68.4823   -3.1626 C   0  0  1  0  0  0  0  0  0  0  0  0
   17.2006   68.3043   -4.6519 C   0  0  2  0  0  0  0  0  0  0  0  0
   18.2052   69.7810   -3.1064 C   0  0  1  0  0  0  0  0  0  0  0  0
   16.9879   69.7360   -5.1135 C   0  0  2  0  0  0  0  0  0  0  0  0
   15.6363   67.8871   -2.5322 H   0  0  0  0  0  0  0  0  0  0  0  0
   16.2811   66.5706   -4.6281 H   0  0  0  0  0  0  0  0  0  0  0  0
   15.6087   71.2945   -7.0232 O   0  0  0  0  0  0  0  0  0  0  0  0
   18.7917   70.4811  -10.2555 O   0  0  0  0  0  0  0  0  0  0  0  0
   17.4337   69.9487   -6.4616 N   0  0  0  0  0  0  0  0  0  0  0  0
   17.1948   70.8883   -8.6310 N   0  0  0  0  0  0  0  0  0  0  0  0
   16.6668   70.7477   -7.3413 C   0  0  0  0  0  0  0  0  0  0  0  0
   18.6194   69.3686   -6.8990 C   0  0  0  0  0  0  0  0  0  0  0  0
   19.1086   69.5113   -8.1326 C   0  0  0  0  0  0  0  0  0  0  0  0
   18.3682   70.3307   -9.1136 C   0  0  0  0  0  0  0  0  0  0  0  0
   16.6773   71.4403   -9.2613 H   0  0  0  0  0  0  0  0  0  0  0  0
   21.8744   71.3633   -0.7273 O   0  0  0  0  0  0  0  0  0  0  0  0
   23.3736   71.3789   -1.3315 P   0  0  2  0  0  0  0  0  0  0  0  0
   23.1313   71.2798   -2.9280 O   0  0  0  0  0  0  0  0  0  0  0  0
   24.2728   70.3136   -0.7743 O   0  0  0  0  0  0  0  0  0  0  0  0
   23.8951   72.8873   -1.0912 O   0  0  0  0  0  0  0  0  0  0  0  0
   23.3390   74.5968    0.4531 O   0  0  0  0  0  0  0  0  0  0  0  0
   23.5869   76.8693   -2.9856 O   0  0  0  0  0  0  0  0  0  0  0  0
   25.6462   77.0805   -0.9950 O   0  0  0  0  0  0  0  0  0  0  0  0
   22.4382   74.2143   -3.0892 O   0  0  0  0  0  0  0  0  0  0  0  0
   23.9460   75.8085   -2.0962 C   0  0  1  0  0  0  0  0  0  0  0  0
   24.4003   76.4260   -0.7721 C   0  0  1  0  0  0  0  0  0  0  0  0
   22.7329   74.9058   -1.8803 C   0  0  2  0  0  0  0  0  0  0  0  0
   24.5466   75.3550    0.3172 C   0  0  1  0  0  0  0  0  0  0  0  0
   22.9653   73.9097   -0.7428 C   0  0  1  0  0  0  0  0  0  0  0  0
   24.3530   77.4460   -3.1273 H   0  0  0  0  0  0  0  0  0  0  0  0
   25.5401   77.7539   -1.6853 H   0  0  0  0  0  0  0  0  0  0  0  0
   22.2929   74.8558   -3.8014 H   0  0  0  0  0  0  0  0  0  0  0  0
   26.2499   76.0442    1.8445 O   0  0  0  0  0  0  0  0  0  0  0  0
   24.8454   75.9667    1.6842 C   0  0  0  0  0  0  0  0  0  0  0  0
   26.4550   76.4320    2.7101 H   0  0  0  0  0  0  0  0  0  0  0  0
 25 28  1  0
 25 24  1  0
 25 26  1  6
 25 27  2  0
  1  4  1  0
  1 24  1  0
  1  2  1  1
  1  3  2  0
  6 11  1  0
  6 12  1  0
 29 36  1  0
 29 37  1  0
  9  7  1  1
  7 13  1  0
 10  8  1  1
  8 14  1  0
 37 28  1  6
  4  5  1  0
 33 30  1  6
 30 38  1  0
 34 31  1  6
 31 39  1  0
 35 32  1  6
 32 40  1  0
 41 42  1  0
 41 43  1  0
 15 19  2  0
 16 22  2  0
 12 17  1  6
 17 19  1  0
 17 20  1  0
 18 19  1  0
 18 22  1  0
 18 23  1  0
  9 10  1  0
  9 11  1  0
 10 12  1  0
 11  5  1  6
 33 34  1  0
 33 35  1  0
 34 36  1  0
 35 37  1  0
 36 42  1  1
 20 21  2  0
 21 22  1  0
M  CHG  2   2  -1  26  -1
M  END
>  <COMPND>  (81) 
    8629 

>  <AUTHOR>  (81) 
    GENERATED BY OPEN BABEL 3.1.1

>  <MASTER>  (81) 
        0    0    0    0    0    0    0    0   58    0   58    0

>  <minimizedAffinity>  (81) 
-7.72145

>  <CNNscore>  (81) 
0.7280350327

>  <CNNaffinity>  (81) 
4.6487870216

>  <CNN_VS>  (81) 
3.3844797611

>  <CNNaffinity_variance>  (81) 
0.0134263383

$$$$
82
     RDKit          3D

 43 45  0  0  0  0  0  0  0  0999 V2000
   20.5008   70.5255   -1.6511 P   0  0  2  0  0  0  0  0  0  0  0  0
   20.1512   69.3281   -0.6208 O   0  0  0  0  0  0  0  0  0  0  0  0
   19.6628   71.7603   -1.4955 O   0  0  0  0  0  0  0  0  0  0  0  0
   20.4441   69.8164   -3.1044 O   0  0  0  0  0  0  0  0  0  0  0  0
   19.5381   68.7444   -3.2987 C   0  0  0  0  0  0  0  0  0  0  0  0
   17.8412   70.2235   -4.1391 O   0  0  0  0  0  0  0  0  0  0  0  0
   15.8931   68.5875   -2.5520 O   0  0  0  0  0  0  0  0  0  0  0  0
   15.5476   67.6329   -5.0830 O   0  0  0  0  0  0  0  0  0  0  0  0
   17.0605   68.1676   -3.2563 C   0  0  1  0  0  0  0  0  0  0  0  0
   16.8069   68.1804   -4.7493 C   0  0  2  0  0  0  0  0  0  0  0  0
   18.1170   69.2548   -3.1038 C   0  0  1  0  0  0  0  0  0  0  0  0
   16.9046   69.6616   -5.0728 C   0  0  2  0  0  0  0  0  0  0  0  0
   15.2042   67.9089   -2.6347 H   0  0  0  0  0  0  0  0  0  0  0  0
   15.5353   66.6894   -4.8584 H   0  0  0  0  0  0  0  0  0  0  0  0
   15.5553   71.2460   -6.9825 O   0  0  0  0  0  0  0  0  0  0  0  0
   18.8080   70.5077  -10.1631 O   0  0  0  0  0  0  0  0  0  0  0  0
   17.3765   69.9007   -6.4076 N   0  0  0  0  0  0  0  0  0  0  0  0
   17.1761   70.8773   -8.5646 N   0  0  0  0  0  0  0  0  0  0  0  0
   16.6228   70.7109   -7.2886 C   0  0  0  0  0  0  0  0  0  0  0  0
   18.5742   69.3349   -6.8310 C   0  0  0  0  0  0  0  0  0  0  0  0
   19.0874   69.5023   -8.0515 C   0  0  0  0  0  0  0  0  0  0  0  0
   18.3623   70.3348   -9.0329 C   0  0  0  0  0  0  0  0  0  0  0  0
   16.6683   71.4375   -9.1955 H   0  0  0  0  0  0  0  0  0  0  0  0
   22.0843   70.7535   -1.4196 O   0  0  0  0  0  0  0  0  0  0  0  0
   23.1548   71.6600   -2.2228 P   0  0  2  0  0  0  0  0  0  0  0  0
   24.3946   70.6479   -2.4594 O   0  0  0  0  0  0  0  0  0  0  0  0
   23.5231   72.9385   -1.5273 O   0  0  0  0  0  0  0  0  0  0  0  0
   22.5053   71.8582   -3.6870 O   0  0  0  0  0  0  0  0  0  0  0  0
   22.9788   74.0236   -4.5258 O   0  0  0  0  0  0  0  0  0  0  0  0
   20.3190   72.7614   -7.4212 O   0  0  0  0  0  0  0  0  0  0  0  0
   23.1131   72.9629   -8.0537 O   0  0  0  0  0  0  0  0  0  0  0  0
   19.8764   72.0574   -4.6484 O   0  0  0  0  0  0  0  0  0  0  0  0
   21.3660   72.6099   -6.4588 C   0  0  1  0  0  0  0  0  0  0  0  0
   22.5320   73.5096   -6.8731 C   0  0  1  0  0  0  0  0  0  0  0  0
   20.8402   73.0112   -5.0818 C   0  0  2  0  0  0  0  0  0  0  0  0
   23.5807   73.6065   -5.7569 C   0  0  1  0  0  0  0  0  0  0  0  0
   21.9703   73.1263   -4.0573 C   0  0  1  0  0  0  0  0  0  0  0  0
   20.6461   72.5078   -8.2976 H   0  0  0  0  0  0  0  0  0  0  0  0
   22.4404   72.9066   -8.7504 H   0  0  0  0  0  0  0  0  0  0  0  0
   19.1662   71.9941   -5.3053 H   0  0  0  0  0  0  0  0  0  0  0  0
   25.4445   74.1192   -7.1614 O   0  0  0  0  0  0  0  0  0  0  0  0
   24.6735   74.6214   -6.0854 C   0  0  0  0  0  0  0  0  0  0  0  0
   26.1438   74.7549   -7.3817 H   0  0  0  0  0  0  0  0  0  0  0  0
 25 28  1  0
 25 24  1  0
 25 26  1  6
 25 27  2  0
  1  4  1  0
  1 24  1  0
  1  2  1  1
  1  3  2  0
  6 11  1  0
  6 12  1  0
 29 36  1  0
 29 37  1  0
  9  7  1  1
  7 13  1  0
 10  8  1  1
  8 14  1  0
 37 28  1  6
  4  5  1  0
 33 30  1  6
 30 38  1  0
 34 31  1  6
 31 39  1  0
 35 32  1  1
 32 40  1  0
 41 42  1  0
 41 43  1  0
 15 19  2  0
 16 22  2  0
 12 17  1  6
 17 19  1  0
 17 20  1  0
 18 19  1  0
 18 22  1  0
 18 23  1  0
  9 10  1  0
  9 11  1  0
 10 12  1  0
 11  5  1  6
 33 34  1  0
 33 35  1  0
 34 36  1  0
 35 37  1  0
 36 42  1  6
 20 21  2  0
 21 22  1  0
M  CHG  2   2  -1  26  -1
M  END
>  <COMPND>  (82) 
    8629 

>  <AUTHOR>  (82) 
    GENERATED BY OPEN BABEL 3.1.1

>  <MASTER>  (82) 
        0    0    0    0    0    0    0    0   58    0   58    0

>  <minimizedAffinity>  (82) 
-8.69582

>  <CNNscore>  (82) 
0.6404739618

>  <CNNaffinity>  (82) 
4.4946241379

>  <CNN_VS>  (82) 
2.8786897659

>  <CNNaffinity_variance>  (82) 
0.6639825702

$$$$
83
     RDKit          3D

 43 45  0  0  0  0  0  0  0  0999 V2000
   20.9170   70.6842   -1.4545 P   0  0  2  0  0  0  0  0  0  0  0  0
   22.4915   70.6583   -1.0835 O   0  0  0  0  0  0  0  0  0  0  0  0
   20.0454   69.8327   -0.5789 O   0  0  0  0  0  0  0  0  0  0  0  0
   20.8841   70.3323   -3.0335 O   0  0  0  0  0  0  0  0  0  0  0  0
   20.0717   69.2564   -3.4696 C   0  0  0  0  0  0  0  0  0  0  0  0
   18.1626   70.4759   -4.2711 O   0  0  0  0  0  0  0  0  0  0  0  0
   16.5196   68.7018   -2.4980 O   0  0  0  0  0  0  0  0  0  0  0  0
   16.1566   67.5835   -4.9586 O   0  0  0  0  0  0  0  0  0  0  0  0
   17.6896   68.3893   -3.2521 C   0  0  1  0  0  0  0  0  0  0  0  0
   17.3554   68.2946   -4.7262 C   0  0  2  0  0  0  0  0  0  0  0  0
   18.6113   69.6019   -3.2122 C   0  0  1  0  0  0  0  0  0  0  0  0
   17.2527   69.7582   -5.1207 C   0  0  2  0  0  0  0  0  0  0  0  0
   15.9158   67.9420   -2.5087 H   0  0  0  0  0  0  0  0  0  0  0  0
   16.2726   66.6581   -4.6919 H   0  0  0  0  0  0  0  0  0  0  0  0
   15.7346   71.2874   -6.9468 O   0  0  0  0  0  0  0  0  0  0  0  0
   18.7514   70.5521  -10.3526 O   0  0  0  0  0  0  0  0  0  0  0  0
   17.6182   69.9831   -6.4908 N   0  0  0  0  0  0  0  0  0  0  0  0
   17.2380   70.9202   -8.6411 N   0  0  0  0  0  0  0  0  0  0  0  0
   16.7856   70.7656   -7.3245 C   0  0  0  0  0  0  0  0  0  0  0  0
   18.7908   69.4310   -6.9948 C   0  0  0  0  0  0  0  0  0  0  0  0
   19.2074   69.5868   -8.2531 C   0  0  0  0  0  0  0  0  0  0  0  0
   18.3953   70.3903   -9.1894 C   0  0  0  0  0  0  0  0  0  0  0  0
   16.6740   71.4611   -9.2403 H   0  0  0  0  0  0  0  0  0  0  0  0
   20.5628   72.2611   -1.4263 O   0  0  0  0  0  0  0  0  0  0  0  0
   19.1860   73.0458   -1.7453 P   0  0  2  0  0  0  0  0  0  0  0  0
   19.5274   74.5742   -1.3392 O   0  0  0  0  0  0  0  0  0  0  0  0
   17.9796   72.4767   -1.0564 O   0  0  0  0  0  0  0  0  0  0  0  0
   19.0899   73.0638   -3.3563 O   0  0  0  0  0  0  0  0  0  0  0  0
   20.8209   74.4279   -4.2278 O   0  0  0  0  0  0  0  0  0  0  0  0
   18.7840   73.6291   -7.7298 O   0  0  0  0  0  0  0  0  0  0  0  0
   21.3278   72.3840   -7.2535 O   0  0  0  0  0  0  0  0  0  0  0  0
   17.3157   74.0833   -5.2767 O   0  0  0  0  0  0  0  0  0  0  0  0
   19.2977   73.3410   -6.4265 C   0  0  1  0  0  0  0  0  0  0  0  0
   20.8220   73.4642   -6.4739 C   0  0  1  0  0  0  0  0  0  0  0  0
   18.7088   74.3347   -5.4269 C   0  0  2  0  0  0  0  0  0  0  0  0
   21.4244   73.4327   -5.0628 C   0  0  1  0  0  0  0  0  0  0  0  0
   19.4113   74.2547   -4.0704 C   0  0  1  0  0  0  0  0  0  0  0  0
   19.1536   73.0014   -8.3692 H   0  0  0  0  0  0  0  0  0  0  0  0
   20.9392   72.4152   -8.1419 H   0  0  0  0  0  0  0  0  0  0  0  0
   16.8824   74.1371   -6.1423 H   0  0  0  0  0  0  0  0  0  0  0  0
   23.6126   72.4741   -5.1022 O   0  0  0  0  0  0  0  0  0  0  0  0
   22.9257   73.7117   -5.0755 C   0  0  0  0  0  0  0  0  0  0  0  0
   24.5694   72.6361   -5.1109 H   0  0  0  0  0  0  0  0  0  0  0  0
 25 28  1  0
 25 24  1  0
 25 26  1  1
 25 27  2  0
  1  4  1  0
  1 24  1  0
  1  2  1  1
  1  3  2  0
  6 11  1  0
  6 12  1  0
 29 36  1  0
 29 37  1  0
  9  7  1  1
  7 13  1  0
 10  8  1  1
  8 14  1  0
 37 28  1  6
  4  5  1  0
 33 30  1  6
 30 38  1  0
 34 31  1  6
 31 39  1  0
 35 32  1  1
 32 40  1  0
 41 42  1  0
 41 43  1  0
 15 19  2  0
 16 22  2  0
 12 17  1  6
 17 19  1  0
 17 20  1  0
 18 19  1  0
 18 22  1  0
 18 23  1  0
  9 10  1  0
  9 11  1  0
 10 12  1  0
 11  5  1  6
 33 34  1  0
 33 35  1  0
 34 36  1  0
 35 37  1  0
 36 42  1  6
 20 21  2  0
 21 22  1  0
M  CHG  2   2  -1  26  -1
M  END
>  <COMPND>  (83) 
    8629 

>  <AUTHOR>  (83) 
    GENERATED BY OPEN BABEL 3.1.1

>  <MASTER>  (83) 
        0    0    0    0    0    0    0    0   58    0   58    0

>  <minimizedAffinity>  (83) 
-7.76685

>  <CNNscore>  (83) 
0.6399034262

>  <CNNaffinity>  (83) 
4.4370856285

>  <CNN_VS>  (83) 
2.8393063545

>  <CNNaffinity_variance>  (83) 
0.5809272528

$$$$
84
     RDKit          3D

 43 45  0  0  0  0  0  0  0  0999 V2000
   21.2325   71.2948   -1.7354 P   0  0  2  0  0  0  0  0  0  0  0  0
   22.5299   70.9149   -0.8466 O   0  0  0  0  0  0  0  0  0  0  0  0
   20.3861   72.4023   -1.1802 O   0  0  0  0  0  0  0  0  0  0  0  0
   20.4820   69.8779   -1.9524 O   0  0  0  0  0  0  0  0  0  0  0  0
   19.8550   69.6288   -3.1985 C   0  0  0  0  0  0  0  0  0  0  0  0
   17.8223   70.5139   -4.1250 O   0  0  0  0  0  0  0  0  0  0  0  0
   16.3897   68.5226   -2.4006 O   0  0  0  0  0  0  0  0  0  0  0  0
   16.3460   67.3271   -4.8512 O   0  0  0  0  0  0  0  0  0  0  0  0
   17.6343   68.3924   -3.0858 C   0  0  1  0  0  0  0  0  0  0  0  0
   17.4008   68.2251   -4.5728 C   0  0  2  0  0  0  0  0  0  0  0  0
   18.3464   69.7380   -3.0251 C   0  0  1  0  0  0  0  0  0  0  0  0
   17.0870   69.6475   -5.0045 C   0  0  2  0  0  0  0  0  0  0  0  0
   15.9168   67.6754   -2.4258 H   0  0  0  0  0  0  0  0  0  0  0  0
   16.5937   66.4362   -4.5583 H   0  0  0  0  0  0  0  0  0  0  0  0
   15.6826   71.3318   -6.7847 O   0  0  0  0  0  0  0  0  0  0  0  0
   18.7113   70.5783  -10.1760 O   0  0  0  0  0  0  0  0  0  0  0  0
   17.4863   69.9097   -6.3584 N   0  0  0  0  0  0  0  0  0  0  0  0
   17.1919   70.9554   -8.4718 N   0  0  0  0  0  0  0  0  0  0  0  0
   16.7104   70.7703   -7.1695 C   0  0  0  0  0  0  0  0  0  0  0  0
   18.6359   69.3167   -6.8690 C   0  0  0  0  0  0  0  0  0  0  0  0
   19.0808   69.5025   -8.1135 C   0  0  0  0  0  0  0  0  0  0  0  0
   18.3281   70.3873   -9.0260 C   0  0  0  0  0  0  0  0  0  0  0  0
   16.6674   71.5506   -9.0552 H   0  0  0  0  0  0  0  0  0  0  0  0
   21.8656   71.5973   -3.1917 O   0  0  0  0  0  0  0  0  0  0  0  0
   22.4725   72.9556   -3.8240 P   0  0  2  0  0  0  0  0  0  0  0  0
   23.4112   72.4177   -5.0270 O   0  0  0  0  0  0  0  0  0  0  0  0
   23.1793   73.8337   -2.8324 O   0  0  0  0  0  0  0  0  0  0  0  0
   21.2214   73.6558   -4.5651 O   0  0  0  0  0  0  0  0  0  0  0  0
   18.9399   73.4767   -3.9494 O   0  0  0  0  0  0  0  0  0  0  0  0
   18.4880   73.9453   -8.0270 O   0  0  0  0  0  0  0  0  0  0  0  0
   17.7902   76.1037   -6.2657 O   0  0  0  0  0  0  0  0  0  0  0  0
   20.6723   72.3540   -6.9897 O   0  0  0  0  0  0  0  0  0  0  0  0
   19.0960   74.1593   -6.7503 C   0  0  1  0  0  0  0  0  0  0  0  0
   18.0508   74.7761   -5.8187 C   0  0  1  0  0  0  0  0  0  0  0  0
   19.5843   72.8209   -6.1993 C   0  0  2  0  0  0  0  0  0  0  0  0
   18.5429   74.7886   -4.3652 C   0  0  1  0  0  0  0  0  0  0  0  0
   20.0043   72.9333   -4.7327 C   0  0  1  0  0  0  0  0  0  0  0  0
   18.1762   74.7913   -8.3826 H   0  0  0  0  0  0  0  0  0  0  0  0
   17.4807   76.0818   -7.1849 H   0  0  0  0  0  0  0  0  0  0  0  0
   20.3936   72.2868   -7.9158 H   0  0  0  0  0  0  0  0  0  0  0  0
   16.1951   75.0507   -4.0072 O   0  0  0  0  0  0  0  0  0  0  0  0
   17.4567   75.2536   -3.3977 C   0  0  0  0  0  0  0  0  0  0  0  0
   15.4940   75.3419   -3.4027 H   0  0  0  0  0  0  0  0  0  0  0  0
 25 28  1  0
 25 24  1  0
 25 26  1  6
 25 27  2  0
  1  4  1  0
  1 24  1  0
  1  2  1  1
  1  3  2  0
  6 11  1  0
  6 12  1  0
 29 36  1  0
 29 37  1  0
  9  7  1  1
  7 13  1  0
 10  8  1  1
  8 14  1  0
 37 28  1  6
  4  5  1  0
 33 30  1  6
 30 38  1  0
 34 31  1  6
 31 39  1  0
 35 32  1  6
 32 40  1  0
 41 42  1  0
 41 43  1  0
 15 19  2  0
 16 22  2  0
 12 17  1  6
 17 19  1  0
 17 20  1  0
 18 19  1  0
 18 22  1  0
 18 23  1  0
  9 10  1  0
  9 11  1  0
 10 12  1  0
 11  5  1  6
 33 34  1  0
 33 35  1  0
 34 36  1  0
 35 37  1  0
 36 42  1  1
 20 21  2  0
 21 22  1  0
M  CHG  2   2  -1  26  -1
M  END
>  <COMPND>  (84) 
    8629 

>  <AUTHOR>  (84) 
    GENERATED BY OPEN BABEL 3.1.1

>  <MASTER>  (84) 
        0    0    0    0    0    0    0    0   58    0   58    0

>  <minimizedAffinity>  (84) 
-7.12577

>  <CNNscore>  (84) 
0.5793313980

>  <CNNaffinity>  (84) 
4.2874350548

>  <CNN_VS>  (84) 
2.4838457108

>  <CNNaffinity_variance>  (84) 
0.4591149390

$$$$
85
     RDKit          3D

 43 45  0  0  0  0  0  0  0  0999 V2000
   20.5565   70.6554   -1.4810 P   0  0  2  0  0  0  0  0  0  0  0  0
   20.2068   69.3252   -0.6291 O   0  0  0  0  0  0  0  0  0  0  0  0
   20.2560   71.9506   -0.7855 O   0  0  0  0  0  0  0  0  0  0  0  0
   19.7992   70.4233   -2.8919 O   0  0  0  0  0  0  0  0  0  0  0  0
   19.0565   71.4958   -3.4450 C   0  0  0  0  0  0  0  0  0  0  0  0
   17.0790   71.3864   -4.8056 O   0  0  0  0  0  0  0  0  0  0  0  0
   16.0059   69.4717   -2.7628 O   0  0  0  0  0  0  0  0  0  0  0  0
   16.8184   67.8096   -4.7663 O   0  0  0  0  0  0  0  0  0  0  0  0
   17.3416   69.6277   -3.2392 C   0  0  1  0  0  0  0  0  0  0  0  0
   17.4721   69.0555   -4.6353 C   0  0  2  0  0  0  0  0  0  0  0  0
   17.5834   71.1126   -3.4801 C   0  0  1  0  0  0  0  0  0  0  0  0
   16.8334   70.1428   -5.4825 C   0  0  2  0  0  0  0  0  0  0  0  0
   15.8282   68.5313   -2.6014 H   0  0  0  0  0  0  0  0  0  0  0  0
   17.2617   67.1515   -4.2085 H   0  0  0  0  0  0  0  0  0  0  0  0
   15.6114   71.4404   -7.6736 O   0  0  0  0  0  0  0  0  0  0  0  0
   19.0834   70.3387  -10.4973 O   0  0  0  0  0  0  0  0  0  0  0  0
   17.3961   70.2108   -6.8016 N   0  0  0  0  0  0  0  0  0  0  0  0
   17.3413   70.8909   -9.0778 N   0  0  0  0  0  0  0  0  0  0  0  0
   16.7010   70.8860   -7.8319 C   0  0  0  0  0  0  0  0  0  0  0  0
   18.6239   69.6126   -7.0629 C   0  0  0  0  0  0  0  0  0  0  0  0
   19.2204   69.6252   -8.2568 C   0  0  0  0  0  0  0  0  0  0  0  0
   18.5607   70.3096   -9.3874 C   0  0  0  0  0  0  0  0  0  0  0  0
   16.8755   71.3551   -9.8108 H   0  0  0  0  0  0  0  0  0  0  0  0
   22.1124   70.4429   -1.8644 O   0  0  0  0  0  0  0  0  0  0  0  0
   23.2381   71.4944   -2.3544 P   0  0  2  0  0  0  0  0  0  0  0  0
   24.3218   70.5554   -3.1036 O   0  0  0  0  0  0  0  0  0  0  0  0
   23.8086   72.3422   -1.2545 O   0  0  0  0  0  0  0  0  0  0  0  0
   22.5300   72.3271   -3.5419 O   0  0  0  0  0  0  0  0  0  0  0  0
   23.5640   73.8728   -5.0110 O   0  0  0  0  0  0  0  0  0  0  0  0
   19.8004   75.5607   -4.8197 O   0  0  0  0  0  0  0  0  0  0  0  0
   20.6289   74.2109   -7.2155 O   0  0  0  0  0  0  0  0  0  0  0  0
   20.9833   74.3972   -2.4477 O   0  0  0  0  0  0  0  0  0  0  0  0
   20.7487   74.4904   -4.8430 C   0  0  1  0  0  0  0  0  0  0  0  0
   21.5211   74.5627   -6.1617 C   0  0  1  0  0  0  0  0  0  0  0  0
   21.6977   74.6384   -3.6552 C   0  0  2  0  0  0  0  0  0  0  0  0
   22.7306   73.6182   -6.1478 C   0  0  1  0  0  0  0  0  0  0  0  0
   22.8912   73.6878   -3.7640 C   0  0  1  0  0  0  0  0  0  0  0  0
   19.1945   75.4724   -5.5711 H   0  0  0  0  0  0  0  0  0  0  0  0
   19.8695   74.8146   -7.2129 H   0  0  0  0  0  0  0  0  0  0  0  0
   20.2305   75.0054   -2.3906 H   0  0  0  0  0  0  0  0  0  0  0  0
   23.1835   72.8557   -8.3665 O   0  0  0  0  0  0  0  0  0  0  0  0
   23.6041   73.7892   -7.3887 C   0  0  0  0  0  0  0  0  0  0  0  0
   23.7305   72.9532   -9.1621 H   0  0  0  0  0  0  0  0  0  0  0  0
 25 28  1  0
 25 24  1  0
 25 26  1  6
 25 27  2  0
  1  4  1  0
  1 24  1  0
  1  2  1  1
  1  3  2  0
  6 11  1  0
  6 12  1  0
 29 36  1  0
 29 37  1  0
  9  7  1  6
  7 13  1  0
 10  8  1  1
  8 14  1  0
 37 28  1  6
  4  5  1  0
 33 30  1  6
 30 38  1  0
 34 31  1  6
 31 39  1  0
 35 32  1  1
 32 40  1  0
 41 42  1  0
 41 43  1  0
 15 19  2  0
 16 22  2  0
 12 17  1  6
 17 19  1  0
 17 20  1  0
 18 19  1  0
 18 22  1  0
 18 23  1  0
  9 10  1  0
  9 11  1  0
 10 12  1  0
 11  5  1  6
 33 34  1  0
 33 35  1  0
 34 36  1  0
 35 37  1  0
 36 42  1  6
 20 21  2  0
 21 22  1  0
M  CHG  2   2  -1  26  -1
M  END
>  <COMPND>  (85) 
    8629 

>  <AUTHOR>  (85) 
    GENERATED BY OPEN BABEL 3.1.1

>  <MASTER>  (85) 
        0    0    0    0    0    0    0    0   58    0   58    0

>  <minimizedAffinity>  (85) 
-8.09510

>  <CNNscore>  (85) 
0.5525653958

>  <CNNaffinity>  (85) 
4.2634048462

>  <CNN_VS>  (85) 
2.3558099270

>  <CNNaffinity_variance>  (85) 
0.5724011660

$$$$
86
     RDKit          3D

 43 45  0  0  0  0  0  0  0  0999 V2000
   20.0038   70.7647   -1.3983 P   0  0  2  0  0  0  0  0  0  0  0  0
   20.3474   69.3804   -0.6346 O   0  0  0  0  0  0  0  0  0  0  0  0
   18.5479   71.1261   -1.4308 O   0  0  0  0  0  0  0  0  0  0  0  0
   20.7195   70.6008   -2.8401 O   0  0  0  0  0  0  0  0  0  0  0  0
   20.0455   71.0854   -3.9884 C   0  0  0  0  0  0  0  0  0  0  0  0
   18.8518   69.0147   -4.2353 O   0  0  0  0  0  0  0  0  0  0  0  0
   19.2806   69.3356   -7.1856 O   0  0  0  0  0  0  0  0  0  0  0  0
   16.6998   70.1570   -6.8672 O   0  0  0  0  0  0  0  0  0  0  0  0
   19.0302   70.3328   -6.1966 C   0  0  1  0  0  0  0  0  0  0  0  0
   17.5778   70.2961   -5.7688 C   0  0  2  0  0  0  0  0  0  0  0  0
   19.7487   69.9174   -4.9188 C   0  0  1  0  0  0  0  0  0  0  0  0
   17.5522   69.0914   -4.8436 C   0  0  2  0  0  0  0  0  0  0  0  0
   18.8320   69.5793   -8.0110 H   0  0  0  0  0  0  0  0  0  0  0  0
   16.7524   70.9483   -7.4257 H   0  0  0  0  0  0  0  0  0  0  0  0
   16.5809   66.9349   -3.2996 O   0  0  0  0  0  0  0  0  0  0  0  0
   13.7484   69.6793   -0.9149 O   0  0  0  0  0  0  0  0  0  0  0  0
   16.5610   69.2139   -3.8122 N   0  0  0  0  0  0  0  0  0  0  0  0
   15.1715   68.3032   -2.1133 N   0  0  0  0  0  0  0  0  0  0  0  0
   16.1413   68.0685   -3.0964 C   0  0  0  0  0  0  0  0  0  0  0  0
   16.0162   70.4594   -3.5191 C   0  0  0  0  0  0  0  0  0  0  0  0
   15.0912   70.6661   -2.5795 C   0  0  0  0  0  0  0  0  0  0  0  0
   14.5984   69.5218   -1.7859 C   0  0  0  0  0  0  0  0  0  0  0  0
   14.8636   67.5198   -1.6021 H   0  0  0  0  0  0  0  0  0  0  0  0
   20.9471   71.8393   -0.6444 O   0  0  0  0  0  0  0  0  0  0  0  0
   22.4919   72.2496   -0.8860 P   0  0  2  0  0  0  0  0  0  0  0  0
   23.2421   70.8206   -0.9981 O   0  0  0  0  0  0  0  0  0  0  0  0
   23.0565   73.1650    0.1615 O   0  0  0  0  0  0  0  0  0  0  0  0
   22.5263   72.8468   -2.3851 O   0  0  0  0  0  0  0  0  0  0  0  0
   23.5991   74.6241   -3.5283 O   0  0  0  0  0  0  0  0  0  0  0  0
   19.7246   75.2610   -4.8062 O   0  0  0  0  0  0  0  0  0  0  0  0
   21.6654   74.1997   -6.6379 O   0  0  0  0  0  0  0  0  0  0  0  0
   20.2272   74.4267   -2.0802 O   0  0  0  0  0  0  0  0  0  0  0  0
   20.8524   74.4780   -4.4057 C   0  0  1  0  0  0  0  0  0  0  0  0
   22.0025   74.7636   -5.3735 C   0  0  1  0  0  0  0  0  0  0  0  0
   21.2431   74.8588   -2.9790 C   0  0  2  0  0  0  0  0  0  0  0  0
   23.3205   74.1702   -4.8580 C   0  0  1  0  0  0  0  0  0  0  0  0
   22.5925   74.2566   -2.5830 C   0  0  1  0  0  0  0  0  0  0  0  0
   19.4711   75.0237   -5.7112 H   0  0  0  0  0  0  0  0  0  0  0  0
   20.8311   74.5824   -6.9519 H   0  0  0  0  0  0  0  0  0  0  0  0
   19.3781   74.8149   -2.3414 H   0  0  0  0  0  0  0  0  0  0  0  0
   24.5959   73.6797   -6.8180 O   0  0  0  0  0  0  0  0  0  0  0  0
   24.5091   74.5769   -5.7263 C   0  0  0  0  0  0  0  0  0  0  0  0
   25.3479   73.9265   -7.3796 H   0  0  0  0  0  0  0  0  0  0  0  0
 25 28  1  0
 25 24  1  0
 25 26  1  6
 25 27  2  0
  1  4  1  0
  1 24  1  0
  1  2  1  1
  1  3  2  0
  6 11  1  0
  6 12  1  0
 29 36  1  0
 29 37  1  0
  9  7  1  6
  7 13  1  0
 10  8  1  6
  8 14  1  0
 37 28  1  6
  4  5  1  0
 33 30  1  6
 30 38  1  0
 34 31  1  6
 31 39  1  0
 35 32  1  1
 32 40  1  0
 41 42  1  0
 41 43  1  0
 15 19  2  0
 16 22  2  0
 12 17  1  1
 17 19  1  0
 17 20  1  0
 18 19  1  0
 18 22  1  0
 18 23  1  0
  9 10  1  0
  9 11  1  0
 10 12  1  0
 11  5  1  1
 33 34  1  0
 33 35  1  0
 34 36  1  0
 35 37  1  0
 36 42  1  6
 20 21  2  0
 21 22  1  0
M  CHG  2   2  -1  26  -1
M  END
>  <COMPND>  (86) 
    8629 

>  <AUTHOR>  (86) 
    GENERATED BY OPEN BABEL 3.1.1

>  <MASTER>  (86) 
        0    0    0    0    0    0    0    0   58    0   58    0

>  <minimizedAffinity>  (86) 
-6.95934

>  <CNNscore>  (86) 
0.5420222878

>  <CNNaffinity>  (86) 
4.2807383537

>  <CNN_VS>  (86) 
2.3202555180

>  <CNNaffinity_variance>  (86) 
0.1550909281

$$$$
87
     RDKit          3D

 43 45  0  0  0  0  0  0  0  0999 V2000
   22.4154   71.3112   -2.4593 P   0  0  2  0  0  0  0  0  0  0  0  0
   23.7123   70.6375   -3.1532 O   0  0  0  0  0  0  0  0  0  0  0  0
   22.1374   70.8540   -1.0575 O   0  0  0  0  0  0  0  0  0  0  0  0
   21.2279   71.0597   -3.5290 O   0  0  0  0  0  0  0  0  0  0  0  0
   20.5564   69.8120   -3.5129 C   0  0  0  0  0  0  0  0  0  0  0  0
   18.4834   70.7711   -4.2589 O   0  0  0  0  0  0  0  0  0  0  0  0
   17.1553   69.0196   -2.2195 O   0  0  0  0  0  0  0  0  0  0  0  0
   16.7317   67.6543   -4.5418 O   0  0  0  0  0  0  0  0  0  0  0  0
   18.2941   68.7504   -3.0355 C   0  0  1  0  0  0  0  0  0  0  0  0
   17.8671   68.4920   -4.4654 C   0  0  2  0  0  0  0  0  0  0  0  0
   19.0909   70.0420   -3.1700 C   0  0  1  0  0  0  0  0  0  0  0  0
   17.5914   69.8980   -4.9708 C   0  0  2  0  0  0  0  0  0  0  0  0
   16.6309   68.2091   -2.1189 H   0  0  0  0  0  0  0  0  0  0  0  0
   16.9579   66.7718   -4.2091 H   0  0  0  0  0  0  0  0  0  0  0  0
   15.9162   71.3109   -6.7527 O   0  0  0  0  0  0  0  0  0  0  0  0
   18.6222   70.3407  -10.3552 O   0  0  0  0  0  0  0  0  0  0  0  0
   17.8345   70.0310   -6.3796 N   0  0  0  0  0  0  0  0  0  0  0  0
   17.2650   70.8268   -8.5450 N   0  0  0  0  0  0  0  0  0  0  0  0
   16.9306   70.7608   -7.1864 C   0  0  0  0  0  0  0  0  0  0  0  0
   18.9588   69.4419   -6.9475 C   0  0  0  0  0  0  0  0  0  0  0  0
   19.2628   69.5130   -8.2451 C   0  0  0  0  0  0  0  0  0  0  0  0
   18.3702   70.2571   -9.1571 C   0  0  0  0  0  0  0  0  0  0  0  0
   16.6496   71.3298   -9.1264 H   0  0  0  0  0  0  0  0  0  0  0  0
   22.7066   72.8946   -2.6051 O   0  0  0  0  0  0  0  0  0  0  0  0
   21.6987   74.1514   -2.7377 P   0  0  2  0  0  0  0  0  0  0  0  0
   20.5641   73.8358   -1.6284 O   0  0  0  0  0  0  0  0  0  0  0  0
   21.1657   74.3691   -4.1242 O   0  0  0  0  0  0  0  0  0  0  0  0
   22.5226   75.4011   -2.1339 O   0  0  0  0  0  0  0  0  0  0  0  0
   24.7473   76.2167   -2.1781 O   0  0  0  0  0  0  0  0  0  0  0  0
   24.0612   76.3913    1.8900 O   0  0  0  0  0  0  0  0  0  0  0  0
   24.1690   78.8223    0.3646 O   0  0  0  0  0  0  0  0  0  0  0  0
   23.0168   74.1786    0.3432 O   0  0  0  0  0  0  0  0  0  0  0  0
   23.7144   76.4783    0.5053 C   0  0  1  0  0  0  0  0  0  0  0  0
   24.5861   77.5570   -0.1406 C   0  0  1  0  0  0  0  0  0  0  0  0
   23.9576   75.1231   -0.1563 C   0  0  2  0  0  0  0  0  0  0  0  0
   24.4639   77.5257   -1.6701 C   0  0  1  0  0  0  0  0  0  0  0  0
   23.8605   75.2129   -1.6803 C   0  0  1  0  0  0  0  0  0  0  0  0
   23.9086   77.2485    2.3161 H   0  0  0  0  0  0  0  0  0  0  0  0
   24.2506   78.8287    1.3313 H   0  0  0  0  0  0  0  0  0  0  0  0
   23.0885   74.1307    1.3088 H   0  0  0  0  0  0  0  0  0  0  0  0
   24.9070   79.7951   -2.2721 O   0  0  0  0  0  0  0  0  0  0  0  0
   25.4426   78.4864   -2.3418 C   0  0  0  0  0  0  0  0  0  0  0  0
   25.5194   80.4174   -2.6955 H   0  0  0  0  0  0  0  0  0  0  0  0
 25 28  1  0
 25 24  1  0
 25 26  1  1
 25 27  2  0
  1  4  1  0
  1 24  1  0
  1  2  1  6
  1  3  2  0
  6 11  1  0
  6 12  1  0
 29 36  1  0
 29 37  1  0
  9  7  1  1
  7 13  1  0
 10  8  1  1
  8 14  1  0
 37 28  1  1
  4  5  1  0
 33 30  1  1
 30 38  1  0
 34 31  1  1
 31 39  1  0
 35 32  1  1
 32 40  1  0
 41 42  1  0
 41 43  1  0
 15 19  2  0
 16 22  2  0
 12 17  1  6
 17 19  1  0
 17 20  1  0
 18 19  1  0
 18 22  1  0
 18 23  1  0
  9 10  1  0
  9 11  1  0
 10 12  1  0
 11  5  1  6
 33 34  1  0
 33 35  1  0
 34 36  1  0
 35 37  1  0
 36 42  1  6
 20 21  2  0
 21 22  1  0
M  CHG  2   2  -1  26  -1
M  END
>  <COMPND>  (87) 
    8629 

>  <AUTHOR>  (87) 
    GENERATED BY OPEN BABEL 3.1.1

>  <MASTER>  (87) 
        0    0    0    0    0    0    0    0   58    0   58    0

>  <minimizedAffinity>  (87) 
-7.19555

>  <CNNscore>  (87) 
0.5394233465

>  <CNNaffinity>  (87) 
4.4689054489

>  <CNN_VS>  (87) 
2.4106318951

>  <CNNaffinity_variance>  (87) 
0.0612768605

$$$$
88
     RDKit          3D

 43 45  0  0  0  0  0  0  0  0999 V2000
   16.3942   72.7628   -2.3598 P   0  0  2  0  0  0  0  0  0  0  0  0
   15.1021   72.1526   -3.1185 O   0  0  0  0  0  0  0  0  0  0  0  0
   16.1026   73.4284   -1.0470 O   0  0  0  0  0  0  0  0  0  0  0  0
   17.0975   73.6954   -3.4795 O   0  0  0  0  0  0  0  0  0  0  0  0
   16.5408   73.7242   -4.7822 C   0  0  0  0  0  0  0  0  0  0  0  0
   18.3786   72.2782   -5.3347 O   0  0  0  0  0  0  0  0  0  0  0  0
   18.1198   73.3277   -8.1315 O   0  0  0  0  0  0  0  0  0  0  0  0
   16.8755   70.9061   -8.2878 O   0  0  0  0  0  0  0  0  0  0  0  0
   17.0997   73.0548   -7.1723 C   0  0  1  0  0  0  0  0  0  0  0  0
   16.8925   71.5608   -7.0357 C   0  0  2  0  0  0  0  0  0  0  0  0
   17.6371   73.4285   -5.7965 C   0  0  1  0  0  0  0  0  0  0  0  0
   18.0802   71.1549   -6.1798 C   0  0  2  0  0  0  0  0  0  0  0  0
   17.7996   73.0972   -9.0183 H   0  0  0  0  0  0  0  0  0  0  0  0
   16.1017   71.1976   -8.7948 H   0  0  0  0  0  0  0  0  0  0  0  0
   20.0442   69.6151   -4.8570 O   0  0  0  0  0  0  0  0  0  0  0  0
   16.8779   66.7975   -3.0467 O   0  0  0  0  0  0  0  0  0  0  0  0
   17.7971   70.0137   -5.3559 N   0  0  0  0  0  0  0  0  0  0  0  0
   18.4660   68.2135   -3.9565 N   0  0  0  0  0  0  0  0  0  0  0  0
   18.8560   69.3090   -4.7373 C   0  0  0  0  0  0  0  0  0  0  0  0
   16.4815   69.6041   -5.1677 C   0  0  0  0  0  0  0  0  0  0  0  0
   16.1264   68.5564   -4.4210 C   0  0  0  0  0  0  0  0  0  0  0  0
   17.1722   67.7662   -3.7400 C   0  0  0  0  0  0  0  0  0  0  0  0
   19.1868   67.7072   -3.5162 H   0  0  0  0  0  0  0  0  0  0  0  0
   17.3920   71.4947   -2.2641 O   0  0  0  0  0  0  0  0  0  0  0  0
   18.6999   71.2398   -1.3490 P   0  0  2  0  0  0  0  0  0  0  0  0
   18.8087   69.6263   -1.2986 O   0  0  0  0  0  0  0  0  0  0  0  0
   18.6461   71.8992   -0.0014 O   0  0  0  0  0  0  0  0  0  0  0  0
   19.9406   71.7033   -2.2715 O   0  0  0  0  0  0  0  0  0  0  0  0
   22.1151   72.1504   -1.4420 O   0  0  0  0  0  0  0  0  0  0  0  0
   22.1589   74.6029   -4.7637 O   0  0  0  0  0  0  0  0  0  0  0  0
   23.7096   72.1856   -4.7654 O   0  0  0  0  0  0  0  0  0  0  0  0
   19.7435   74.3481   -3.1888 O   0  0  0  0  0  0  0  0  0  0  0  0
   21.8167   73.4371   -4.0093 C   0  0  1  0  0  0  0  0  0  0  0  0
   23.1123   72.7367   -3.5950 C   0  0  1  0  0  0  0  0  0  0  0  0
   21.0149   73.8565   -2.7786 C   0  0  2  0  0  0  0  0  0  0  0  0
   22.8401   71.6332   -2.5638 C   0  0  1  0  0  0  0  0  0  0  0  0
   20.8432   72.6979   -1.7946 C   0  0  1  0  0  0  0  0  0  0  0  0
   22.6677   74.3435   -5.5469 H   0  0  0  0  0  0  0  0  0  0  0  0
   23.8758   72.8927   -5.4085 H   0  0  0  0  0  0  0  0  0  0  0  0
   19.8659   75.0813   -3.8111 H   0  0  0  0  0  0  0  0  0  0  0  0
   24.7768   70.3276   -3.0673 O   0  0  0  0  0  0  0  0  0  0  0  0
   24.1321   71.0279   -2.0193 C   0  0  0  0  0  0  0  0  0  0  0  0
   25.6010   69.9372   -2.7354 H   0  0  0  0  0  0  0  0  0  0  0  0
 25 28  1  0
 25 24  1  0
 25 26  1  1
 25 27  2  0
  1  4  1  0
  1 24  1  0
  1  2  1  6
  1  3  2  0
  6 11  1  0
  6 12  1  0
 29 36  1  0
 29 37  1  0
  9  7  1  6
  7 13  1  0
 10  8  1  6
  8 14  1  0
 37 28  1  6
  4  5  1  0
 33 30  1  1
 30 38  1  0
 34 31  1  6
 31 39  1  0
 35 32  1  6
 32 40  1  0
 41 42  1  0
 41 43  1  0
 15 19  2  0
 16 22  2  0
 12 17  1  1
 17 19  1  0
 17 20  1  0
 18 19  1  0
 18 22  1  0
 18 23  1  0
  9 10  1  0
  9 11  1  0
 10 12  1  0
 11  5  1  1
 33 34  1  0
 33 35  1  0
 34 36  1  0
 35 37  1  0
 36 42  1  1
 20 21  2  0
 21 22  1  0
M  CHG  2   2  -1  26  -1
M  END
>  <COMPND>  (88) 
    8629 

>  <AUTHOR>  (88) 
    GENERATED BY OPEN BABEL 3.1.1

>  <MASTER>  (88) 
        0    0    0    0    0    0    0    0   58    0   58    0

>  <minimizedAffinity>  (88) 
-7.25626

>  <CNNscore>  (88) 
0.4565119445

>  <CNNaffinity>  (88) 
4.0753617287

>  <CNN_VS>  (88) 
1.8604513407

>  <CNNaffinity_variance>  (88) 
0.6545494199

$$$$
89
     RDKit          3D

 43 45  0  0  0  0  0  0  0  0999 V2000
   17.4148   69.4207   -3.9433 P   0  0  2  0  0  0  0  0  0  0  0  0
   17.6913   67.9888   -3.2428 O   0  0  0  0  0  0  0  0  0  0  0  0
   15.9900   69.8880   -3.8891 O   0  0  0  0  0  0  0  0  0  0  0  0
   18.0445   69.2565   -5.4246 O   0  0  0  0  0  0  0  0  0  0  0  0
   18.2563   70.4220   -6.2022 C   0  0  0  0  0  0  0  0  0  0  0  0
   16.2168   70.5941   -7.4610 O   0  0  0  0  0  0  0  0  0  0  0  0
   17.9437   70.5342   -9.9115 O   0  0  0  0  0  0  0  0  0  0  0  0
   17.3703   73.1877   -9.6531 O   0  0  0  0  0  0  0  0  0  0  0  0
   18.1976   71.1365   -8.6433 C   0  0  1  0  0  0  0  0  0  0  0  0
   17.3697   72.3946   -8.4836 C   0  0  2  0  0  0  0  0  0  0  0  0
   17.6107   70.2309   -7.5678 C   0  0  1  0  0  0  0  0  0  0  0  0
   15.9968   71.8295   -8.1612 C   0  0  2  0  0  0  0  0  0  0  0  0
   18.3098   71.0945  -10.6144 H   0  0  0  0  0  0  0  0  0  0  0  0
   18.2655   73.5238   -9.8156 H   0  0  0  0  0  0  0  0  0  0  0  0
   14.0451   73.6333   -9.1179 O   0  0  0  0  0  0  0  0  0  0  0  0
   13.0999   75.1493   -4.8694 O   0  0  0  0  0  0  0  0  0  0  0  0
   15.2253   72.7072   -7.3271 N   0  0  0  0  0  0  0  0  0  0  0  0
   13.5759   74.3865   -7.0017 N   0  0  0  0  0  0  0  0  0  0  0  0
   14.2711   73.5752   -7.9074 C   0  0  0  0  0  0  0  0  0  0  0  0
   15.4180   72.7015   -5.9499 C   0  0  0  0  0  0  0  0  0  0  0  0
   14.7478   73.4824   -5.1000 C   0  0  0  0  0  0  0  0  0  0  0  0
   13.7327   74.4183   -5.6250 C   0  0  0  0  0  0  0  0  0  0  0  0
   12.9063   74.9996   -7.3832 H   0  0  0  0  0  0  0  0  0  0  0  0
   18.4713   70.3964   -3.2054 O   0  0  0  0  0  0  0  0  0  0  0  0
   18.5468   70.9174   -1.6770 P   0  0  2  0  0  0  0  0  0  0  0  0
   19.1248   69.6359   -0.8763 O   0  0  0  0  0  0  0  0  0  0  0  0
   17.2477   71.4472   -1.1426 O   0  0  0  0  0  0  0  0  0  0  0  0
   19.7583   71.9839   -1.6684 O   0  0  0  0  0  0  0  0  0  0  0  0
   22.0146   71.2655   -1.7663 O   0  0  0  0  0  0  0  0  0  0  0  0
   22.5779   74.9771   -0.0465 O   0  0  0  0  0  0  0  0  0  0  0  0
   23.3387   74.5521   -2.7831 O   0  0  0  0  0  0  0  0  0  0  0  0
   20.2980   73.3640    0.7147 O   0  0  0  0  0  0  0  0  0  0  0  0
   21.9528   74.0213   -0.9073 C   0  0  1  0  0  0  0  0  0  0  0  0
   23.0054   73.4966   -1.8858 C   0  0  1  0  0  0  0  0  0  0  0  0
   21.3893   72.8810   -0.0614 C   0  0  2  0  0  0  0  0  0  0  0  0
   22.4826   72.2804   -2.6622 C   0  0  1  0  0  0  0  0  0  0  0  0
   20.9429   71.7020   -0.9279 C   0  0  1  0  0  0  0  0  0  0  0  0
   22.9373   75.7041   -0.5774 H   0  0  0  0  0  0  0  0  0  0  0  0
   23.6669   75.3140   -2.2801 H   0  0  0  0  0  0  0  0  0  0  0  0
   20.5935   74.1098    1.2590 H   0  0  0  0  0  0  0  0  0  0  0  0
   23.6960   72.4032   -4.7168 O   0  0  0  0  0  0  0  0  0  0  0  0
   23.5681   71.6449   -3.5282 C   0  0  0  0  0  0  0  0  0  0  0  0
   24.3837   72.0106   -5.2777 H   0  0  0  0  0  0  0  0  0  0  0  0
 25 28  1  0
 25 24  1  0
 25 26  1  1
 25 27  2  0
  1  4  1  0
  1 24  1  0
  1  2  1  1
  1  3  2  0
  6 11  1  0
  6 12  1  0
 29 36  1  0
 29 37  1  0
  9  7  1  6
  7 13  1  0
 10  8  1  6
  8 14  1  0
 37 28  1  6
  4  5  1  0
 33 30  1  1
 30 38  1  0
 34 31  1  6
 31 39  1  0
 35 32  1  6
 32 40  1  0
 41 42  1  0
 41 43  1  0
 15 19  2  0
 16 22  2  0
 12 17  1  1
 17 19  1  0
 17 20  1  0
 18 19  1  0
 18 22  1  0
 18 23  1  0
  9 10  1  0
  9 11  1  0
 10 12  1  0
 11  5  1  1
 33 34  1  0
 33 35  1  0
 34 36  1  0
 35 37  1  0
 36 42  1  1
 20 21  2  0
 21 22  1  0
M  CHG  2   2  -1  26  -1
M  END
>  <COMPND>  (89) 
    8629 

>  <AUTHOR>  (89) 
    GENERATED BY OPEN BABEL 3.1.1

>  <MASTER>  (89) 
        0    0    0    0    0    0    0    0   58    0   58    0

>  <minimizedAffinity>  (89) 
-7.84226

>  <CNNscore>  (89) 
0.4154641032

>  <CNNaffinity>  (89) 
4.1862344742

>  <CNN_VS>  (89) 
1.7392301559

>  <CNNaffinity_variance>  (89) 
0.1517678201

$$$$
90
     RDKit          3D

 43 45  0  0  0  0  0  0  0  0999 V2000
   22.5154   71.3320   -1.9197 P   0  0  2  0  0  0  0  0  0  0  0  0
   23.8478   70.7005   -2.5856 O   0  0  0  0  0  0  0  0  0  0  0  0
   21.9825   70.5815   -0.7348 O   0  0  0  0  0  0  0  0  0  0  0  0
   21.4966   71.4919   -3.1664 O   0  0  0  0  0  0  0  0  0  0  0  0
   20.8005   70.3449   -3.6222 C   0  0  0  0  0  0  0  0  0  0  0  0
   18.6253   71.0723   -4.3386 O   0  0  0  0  0  0  0  0  0  0  0  0
   17.5313   69.3443   -2.1458 O   0  0  0  0  0  0  0  0  0  0  0  0
   17.1484   67.8041   -4.3634 O   0  0  0  0  0  0  0  0  0  0  0  0
   18.6598   69.1238   -2.9903 C   0  0  1  0  0  0  0  0  0  0  0  0
   18.2069   68.7400   -4.3836 C   0  0  2  0  0  0  0  0  0  0  0  0
   19.3335   70.4684   -3.2339 C   0  0  1  0  0  0  0  0  0  0  0  0
   17.7897   70.0822   -4.9602 C   0  0  2  0  0  0  0  0  0  0  0  0
   17.0848   68.4995   -1.9758 H   0  0  0  0  0  0  0  0  0  0  0  0
   17.4637   66.9671   -3.9883 H   0  0  0  0  0  0  0  0  0  0  0  0
   16.0222   71.3880   -6.7347 O   0  0  0  0  0  0  0  0  0  0  0  0
   18.5805   70.2645  -10.3999 O   0  0  0  0  0  0  0  0  0  0  0  0
   17.9698   70.1468   -6.3831 N   0  0  0  0  0  0  0  0  0  0  0  0
   17.2976   70.8277   -8.5582 N   0  0  0  0  0  0  0  0  0  0  0  0
   17.0232   70.8266   -7.1846 C   0  0  0  0  0  0  0  0  0  0  0  0
   19.0753   69.5408   -6.9699 C   0  0  0  0  0  0  0  0  0  0  0  0
   19.3218   69.5498   -8.2816 C   0  0  0  0  0  0  0  0  0  0  0  0
   18.3818   70.2386   -9.1892 C   0  0  0  0  0  0  0  0  0  0  0  0
   16.6516   71.2949   -9.1363 H   0  0  0  0  0  0  0  0  0  0  0  0
   22.9520   72.8571   -1.6094 O   0  0  0  0  0  0  0  0  0  0  0  0
   22.4963   74.2510   -2.2892 P   0  0  2  0  0  0  0  0  0  0  0  0
   23.5726   75.3135   -1.7145 O   0  0  0  0  0  0  0  0  0  0  0  0
   21.0639   74.6209   -2.0338 O   0  0  0  0  0  0  0  0  0  0  0  0
   22.8772   74.0884   -3.8492 O   0  0  0  0  0  0  0  0  0  0  0  0
   23.1841   75.5126   -5.7185 O   0  0  0  0  0  0  0  0  0  0  0  0
   20.7144   72.6866   -7.4405 O   0  0  0  0  0  0  0  0  0  0  0  0
   23.4959   72.7613   -8.1520 O   0  0  0  0  0  0  0  0  0  0  0  0
   20.2654   73.5223   -4.7057 O   0  0  0  0  0  0  0  0  0  0  0  0
   21.7465   73.1580   -6.5698 C   0  0  1  0  0  0  0  0  0  0  0  0
   22.8411   73.7979   -7.4260 C   0  0  1  0  0  0  0  0  0  0  0  0
   21.1544   74.1805   -5.6017 C   0  0  2  0  0  0  0  0  0  0  0  0
   23.8498   74.5605   -6.5564 C   0  0  1  0  0  0  0  0  0  0  0  0
   22.2448   74.9168   -4.8214 C   0  0  1  0  0  0  0  0  0  0  0  0
   21.0837   72.0366   -8.0575 H   0  0  0  0  0  0  0  0  0  0  0  0
   22.8479   72.2873   -8.6966 H   0  0  0  0  0  0  0  0  0  0  0  0
   19.5798   73.0603   -5.2118 H   0  0  0  0  0  0  0  0  0  0  0  0
   25.9752   74.5013   -7.6463 O   0  0  0  0  0  0  0  0  0  0  0  0
   24.8594   75.3368   -7.3990 C   0  0  0  0  0  0  0  0  0  0  0  0
   26.6261   74.9821   -8.1819 H   0  0  0  0  0  0  0  0  0  0  0  0
 25 28  1  0
 25 24  1  0
 25 26  1  1
 25 27  2  0
  1  4  1  0
  1 24  1  0
  1  2  1  6
  1  3  2  0
  6 11  1  0
  6 12  1  0
 29 36  1  0
 29 37  1  0
  9  7  1  1
  7 13  1  0
 10  8  1  1
  8 14  1  0
 37 28  1  1
  4  5  1  0
 33 30  1  6
 30 38  1  0
 34 31  1  1
 31 39  1  0
 35 32  1  1
 32 40  1  0
 41 42  1  0
 41 43  1  0
 15 19  2  0
 16 22  2  0
 12 17  1  6
 17 19  1  0
 17 20  1  0
 18 19  1  0
 18 22  1  0
 18 23  1  0
  9 10  1  0
  9 11  1  0
 10 12  1  0
 11  5  1  6
 33 34  1  0
 33 35  1  0
 34 36  1  0
 35 37  1  0
 36 42  1  6
 20 21  2  0
 21 22  1  0
M  CHG  2   2  -1  26  -1
M  END
>  <COMPND>  (90) 
    8629 

>  <AUTHOR>  (90) 
    GENERATED BY OPEN BABEL 3.1.1

>  <MASTER>  (90) 
        0    0    0    0    0    0    0    0   58    0   58    0

>  <minimizedAffinity>  (90) 
-7.89890

>  <CNNscore>  (90) 
0.4096377790

>  <CNNaffinity>  (90) 
4.1563510895

>  <CNN_VS>  (90) 
1.7025984526

>  <CNNaffinity_variance>  (90) 
0.6804407239

$$$$
91
     RDKit          3D

 43 45  0  0  0  0  0  0  0  0999 V2000
   16.1068   70.4400   -2.3968 P   0  0  2  0  0  0  0  0  0  0  0  0
   15.5606   71.0333   -3.7993 O   0  0  0  0  0  0  0  0  0  0  0  0
   15.2929   69.3174   -1.8235 O   0  0  0  0  0  0  0  0  0  0  0  0
   16.2616   71.7473   -1.4560 O   0  0  0  0  0  0  0  0  0  0  0  0
   17.4621   72.4964   -1.5316 C   0  0  0  0  0  0  0  0  0  0  0  0
   19.1719   71.9295    0.0586 O   0  0  0  0  0  0  0  0  0  0  0  0
   18.3677   74.4163    1.5281 O   0  0  0  0  0  0  0  0  0  0  0  0
   20.6189   75.2077    0.2080 O   0  0  0  0  0  0  0  0  0  0  0  0
   18.4191   74.1755    0.1229 C   0  0  1  0  0  0  0  0  0  0  0  0
   19.8559   74.1604   -0.3558 C   0  0  2  0  0  0  0  0  0  0  0  0
   17.9869   72.7353   -0.1225 C   0  0  1  0  0  0  0  0  0  0  0  0
   20.3240   72.7874    0.0958 C   0  0  2  0  0  0  0  0  0  0  0  0
   18.6393   75.3302    1.7096 H   0  0  0  0  0  0  0  0  0  0  0  0
   20.2824   76.0602   -0.1095 H   0  0  0  0  0  0  0  0  0  0  0  0
   23.0273   72.4411    0.8377 O   0  0  0  0  0  0  0  0  0  0  0  0
   24.1254   70.6957   -3.2840 O   0  0  0  0  0  0  0  0  0  0  0  0
   21.3378   72.2444   -0.7636 N   0  0  0  0  0  0  0  0  0  0  0  0
   23.5718   71.5721   -1.2151 N   0  0  0  0  0  0  0  0  0  0  0  0
   22.6657   72.1134   -0.2943 C   0  0  0  0  0  0  0  0  0  0  0  0
   21.0114   71.8480   -2.0559 C   0  0  0  0  0  0  0  0  0  0  0  0
   21.8875   71.3348   -2.9221 C   0  0  0  0  0  0  0  0  0  0  0  0
   23.2959   71.1645   -2.5107 C   0  0  0  0  0  0  0  0  0  0  0  0
   24.5029   71.4719   -0.9104 H   0  0  0  0  0  0  0  0  0  0  0  0
   17.6391   70.0542   -2.7376 O   0  0  0  0  0  0  0  0  0  0  0  0
   18.2864   69.3069   -4.0165 P   0  0  2  0  0  0  0  0  0  0  0  0
   17.1432   68.2445   -4.4432 O   0  0  0  0  0  0  0  0  0  0  0  0
   19.6330   68.6964   -3.7561 O   0  0  0  0  0  0  0  0  0  0  0  0
   18.2702   70.4159   -5.1890 O   0  0  0  0  0  0  0  0  0  0  0  0
   19.6364   70.0808   -7.0963 O   0  0  0  0  0  0  0  0  0  0  0  0
   19.0277   74.1515   -7.4278 O   0  0  0  0  0  0  0  0  0  0  0  0
   17.7142   72.3679   -9.2558 O   0  0  0  0  0  0  0  0  0  0  0  0
   19.4050   72.9557   -4.8187 O   0  0  0  0  0  0  0  0  0  0  0  0
   18.6742   72.8029   -7.1087 C   0  0  1  0  0  0  0  0  0  0  0  0
   18.7697   71.9670   -8.3865 C   0  0  1  0  0  0  0  0  0  0  0  0
   19.6355   72.2729   -6.0464 C   0  0  2  0  0  0  0  0  0  0  0  0
   18.6662   70.4675   -8.0766 C   0  0  1  0  0  0  0  0  0  0  0  0
   19.4840   70.7634   -5.8502 C   0  0  1  0  0  0  0  0  0  0  0  0
   18.4208   74.4941   -8.1014 H   0  0  0  0  0  0  0  0  0  0  0  0
   17.7908   73.3167   -9.4432 H   0  0  0  0  0  0  0  0  0  0  0  0
   19.5042   73.9102   -4.9561 H   0  0  0  0  0  0  0  0  0  0  0  0
   17.8965   69.8754  -10.2597 O   0  0  0  0  0  0  0  0  0  0  0  0
   18.9164   69.6090   -9.3146 C   0  0  0  0  0  0  0  0  0  0  0  0
   18.0430   69.3362  -11.0531 H   0  0  0  0  0  0  0  0  0  0  0  0
 25 28  1  0
 25 24  1  0
 25 26  1  6
 25 27  2  0
  1  4  1  0
  1 24  1  0
  1  2  1  6
  1  3  2  0
  6 11  1  0
  6 12  1  0
 29 36  1  0
 29 37  1  0
  9  7  1  1
  7 13  1  0
 10  8  1  1
  8 14  1  0
 37 28  1  6
  4  5  1  0
 33 30  1  6
 30 38  1  0
 34 31  1  6
 31 39  1  0
 35 32  1  1
 32 40  1  0
 41 42  1  0
 41 43  1  0
 15 19  2  0
 16 22  2  0
 12 17  1  6
 17 19  1  0
 17 20  1  0
 18 19  1  0
 18 22  1  0
 18 23  1  0
  9 10  1  0
  9 11  1  0
 10 12  1  0
 11  5  1  6
 33 34  1  0
 33 35  1  0
 34 36  1  0
 35 37  1  0
 36 42  1  6
 20 21  2  0
 21 22  1  0
M  CHG  2   2  -1  26  -1
M  END
>  <COMPND>  (91) 
    8629 

>  <AUTHOR>  (91) 
    GENERATED BY OPEN BABEL 3.1.1

>  <MASTER>  (91) 
        0    0    0    0    0    0    0    0   58    0   58    0

>  <minimizedAffinity>  (91) 
-7.74819

>  <CNNscore>  (91) 
0.4059633315

>  <CNNaffinity>  (91) 
3.9669756889

>  <CNN_VS>  (91) 
1.6104466915

>  <CNNaffinity_variance>  (91) 
0.6417374015

$$$$
92
     RDKit          3D

 43 45  0  0  0  0  0  0  0  0999 V2000
   19.3737   70.2115   -2.4283 P   0  0  2  0  0  0  0  0  0  0  0  0
   19.3600   69.5966   -0.9319 O   0  0  0  0  0  0  0  0  0  0  0  0
   20.2277   69.4666   -3.4118 O   0  0  0  0  0  0  0  0  0  0  0  0
   19.7540   71.7682   -2.2051 O   0  0  0  0  0  0  0  0  0  0  0  0
   20.0941   72.2006   -0.8993 C   0  0  0  0  0  0  0  0  0  0  0  0
   18.9922   74.1485   -1.7742 O   0  0  0  0  0  0  0  0  0  0  0  0
   20.0379   75.5929    0.6364 O   0  0  0  0  0  0  0  0  0  0  0  0
   17.4439   75.0996    1.3179 O   0  0  0  0  0  0  0  0  0  0  0  0
   19.5768   74.2478    0.5201 C   0  0  1  0  0  0  0  0  0  0  0  0
   18.0669   74.2175    0.4065 C   0  0  2  0  0  0  0  0  0  0  0  0
   20.0089   73.7197   -0.8422 C   0  0  1  0  0  0  0  0  0  0  0  0
   17.8516   74.6246   -1.0412 C   0  0  2  0  0  0  0  0  0  0  0  0
   19.7741   75.9515    1.4988 H   0  0  0  0  0  0  0  0  0  0  0  0
   17.6097   74.7981    2.2247 H   0  0  0  0  0  0  0  0  0  0  0  0
   16.4693   75.6676   -3.2727 O   0  0  0  0  0  0  0  0  0  0  0  0
   13.3009   72.3250   -3.1033 O   0  0  0  0  0  0  0  0  0  0  0  0
   16.6628   74.0467   -1.6017 N   0  0  0  0  0  0  0  0  0  0  0  0
   14.8929   74.0023   -3.1866 N   0  0  0  0  0  0  0  0  0  0  0  0
   16.0454   74.6492   -2.7225 C   0  0  0  0  0  0  0  0  0  0  0  0
   16.1212   72.8951   -1.0408 C   0  0  0  0  0  0  0  0  0  0  0  0
   15.0209   72.2913   -1.4945 C   0  0  0  0  0  0  0  0  0  0  0  0
   14.3151   72.8568   -2.6625 C   0  0  0  0  0  0  0  0  0  0  0  0
   14.4456   74.4043   -3.9664 H   0  0  0  0  0  0  0  0  0  0  0  0
   17.8043   70.2721   -2.8107 O   0  0  0  0  0  0  0  0  0  0  0  0
   16.8495   69.1974   -3.5499 P   0  0  2  0  0  0  0  0  0  0  0  0
   15.4298   69.3821   -2.7963 O   0  0  0  0  0  0  0  0  0  0  0  0
   17.3791   67.7926   -3.5373 O   0  0  0  0  0  0  0  0  0  0  0  0
   16.6110   69.8090   -5.0243 O   0  0  0  0  0  0  0  0  0  0  0  0
   18.4250   71.0195   -5.9521 O   0  0  0  0  0  0  0  0  0  0  0  0
   15.4194   72.2944   -8.4802 O   0  0  0  0  0  0  0  0  0  0  0  0
   17.4072   70.4630   -9.4511 O   0  0  0  0  0  0  0  0  0  0  0  0
   14.8734   71.9182   -5.6624 O   0  0  0  0  0  0  0  0  0  0  0  0
   16.1147   71.3605   -7.6497 C   0  0  1  0  0  0  0  0  0  0  0  0
   17.5220   71.1683   -8.2183 C   0  0  1  0  0  0  0  0  0  0  0  0
   16.1805   71.9108   -6.2263 C   0  0  2  0  0  0  0  0  0  0  0  0
   18.4137   70.3921   -7.2397 C   0  0  1  0  0  0  0  0  0  0  0  0
   17.1319   71.0953   -5.3488 C   0  0  1  0  0  0  0  0  0  0  0  0
   15.3737   71.9507   -9.3854 H   0  0  0  0  0  0  0  0  0  0  0  0
   16.8413   70.9634  -10.0598 H   0  0  0  0  0  0  0  0  0  0  0  0
   14.2808   72.4379   -6.2269 H   0  0  0  0  0  0  0  0  0  0  0  0
   20.0459   69.1172   -8.4311 O   0  0  0  0  0  0  0  0  0  0  0  0
   19.8630   70.3255   -7.7163 C   0  0  0  0  0  0  0  0  0  0  0  0
   20.9639   69.0613   -8.7408 H   0  0  0  0  0  0  0  0  0  0  0  0
 25 28  1  0
 25 24  1  0
 25 26  1  1
 25 27  2  0
  1  4  1  0
  1 24  1  0
  1  2  1  1
  1  3  2  0
  6 11  1  0
  6 12  1  0
 29 36  1  0
 29 37  1  0
  9  7  1  6
  7 13  1  0
 10  8  1  1
  8 14  1  0
 37 28  1  6
  4  5  1  0
 33 30  1  6
 30 38  1  0
 34 31  1  6
 31 39  1  0
 35 32  1  1
 32 40  1  0
 41 42  1  0
 41 43  1  0
 15 19  2  0
 16 22  2  0
 12 17  1  6
 17 19  1  0
 17 20  1  0
 18 19  1  0
 18 22  1  0
 18 23  1  0
  9 10  1  0
  9 11  1  0
 10 12  1  0
 11  5  1  1
 33 34  1  0
 33 35  1  0
 34 36  1  0
 35 37  1  0
 36 42  1  6
 20 21  2  0
 21 22  1  0
M  CHG  2   2  -1  26  -1
M  END
>  <COMPND>  (92) 
    8629 

>  <AUTHOR>  (92) 
    GENERATED BY OPEN BABEL 3.1.1

>  <MASTER>  (92) 
        0    0    0    0    0    0    0    0   58    0   58    0

>  <minimizedAffinity>  (92) 
-6.36632

>  <CNNscore>  (92) 
0.4038493931

>  <CNNaffinity>  (92) 
3.8690540791

>  <CNN_VS>  (92) 
1.5625151396

>  <CNNaffinity_variance>  (92) 
0.5728002191

$$$$
93
     RDKit          3D

 43 45  0  0  0  0  0  0  0  0999 V2000
   16.5457   70.2207   -2.5997 P   0  0  2  0  0  0  0  0  0  0  0  0
   15.3317   70.2416   -3.6690 O   0  0  0  0  0  0  0  0  0  0  0  0
   16.5487   69.0453   -1.6672 O   0  0  0  0  0  0  0  0  0  0  0  0
   16.4685   71.6757   -1.8961 O   0  0  0  0  0  0  0  0  0  0  0  0
   17.6472   72.4595   -1.8328 C   0  0  0  0  0  0  0  0  0  0  0  0
   19.2040   71.8424   -0.1095 O   0  0  0  0  0  0  0  0  0  0  0  0
   18.2534   74.2766    1.3608 O   0  0  0  0  0  0  0  0  0  0  0  0
   20.6140   75.1165    0.2842 O   0  0  0  0  0  0  0  0  0  0  0  0
   18.4371   74.0836   -0.0407 C   0  0  1  0  0  0  0  0  0  0  0  0
   19.9123   74.0874   -0.3832 C   0  0  2  0  0  0  0  0  0  0  0  0
   18.0370   72.6516   -0.3735 C   0  0  1  0  0  0  0  0  0  0  0  0
   20.3432   72.7009    0.0640 C   0  0  2  0  0  0  0  0  0  0  0  0
   18.5022   75.1845    1.5973 H   0  0  0  0  0  0  0  0  0  0  0  0
   20.3043   75.9786   -0.0347 H   0  0  0  0  0  0  0  0  0  0  0  0
   23.0692   73.0557    0.7129 O   0  0  0  0  0  0  0  0  0  0  0  0
   24.4485   70.6944   -2.9970 O   0  0  0  0  0  0  0  0  0  0  0  0
   21.4356   72.1891   -0.7145 N   0  0  0  0  0  0  0  0  0  0  0  0
   23.7537   71.8795   -1.1348 N   0  0  0  0  0  0  0  0  0  0  0  0
   22.7679   72.4239   -0.3019 C   0  0  0  0  0  0  0  0  0  0  0  0
   21.1807   71.4632   -1.8730 C   0  0  0  0  0  0  0  0  0  0  0  0
   22.1321   70.9519   -2.6569 C   0  0  0  0  0  0  0  0  0  0  0  0
   23.5507   71.1519   -2.2967 C   0  0  0  0  0  0  0  0  0  0  0  0
   24.6894   72.0307   -0.8673 H   0  0  0  0  0  0  0  0  0  0  0  0
   17.8575   70.3395   -3.5368 O   0  0  0  0  0  0  0  0  0  0  0  0
   18.6462   69.2271   -4.4047 P   0  0  2  0  0  0  0  0  0  0  0  0
   17.5396   68.0654   -4.6126 O   0  0  0  0  0  0  0  0  0  0  0  0
   19.9287   68.7564   -3.7820 O   0  0  0  0  0  0  0  0  0  0  0  0
   18.8168   69.8936   -5.8648 O   0  0  0  0  0  0  0  0  0  0  0  0
   16.6991   70.3380   -6.8314 O   0  0  0  0  0  0  0  0  0  0  0  0
   19.0994   71.1855  -10.0827 O   0  0  0  0  0  0  0  0  0  0  0  0
   17.8217   73.3320   -8.6656 O   0  0  0  0  0  0  0  0  0  0  0  0
   19.7565   68.9681   -8.3418 O   0  0  0  0  0  0  0  0  0  0  0  0
   18.7566   71.1306   -8.6953 C   0  0  1  0  0  0  0  0  0  0  0  0
   17.4881   71.9590   -8.4816 C   0  0  1  0  0  0  0  0  0  0  0  0
   18.5216   69.6749   -8.2964 C   0  0  2  0  0  0  0  0  0  0  0  0
   16.9089   71.7332   -7.0786 C   0  0  1  0  0  0  0  0  0  0  0  0
   17.8984   69.5645   -6.9038 C   0  0  1  0  0  0  0  0  0  0  0  0
   19.2503   72.1071  -10.3424 H   0  0  0  0  0  0  0  0  0  0  0  0
   18.1868   73.4609   -9.5552 H   0  0  0  0  0  0  0  0  0  0  0  0
   20.1407   69.0454   -9.2285 H   0  0  0  0  0  0  0  0  0  0  0  0
   15.0510   72.0932   -5.6199 O   0  0  0  0  0  0  0  0  0  0  0  0
   15.5599   72.4259   -6.8985 C   0  0  0  0  0  0  0  0  0  0  0  0
   14.1927   72.5273   -5.4912 H   0  0  0  0  0  0  0  0  0  0  0  0
 25 28  1  0
 25 24  1  0
 25 26  1  6
 25 27  2  0
  1  4  1  0
  1 24  1  0
  1  2  1  6
  1  3  2  0
  6 11  1  0
  6 12  1  0
 29 36  1  0
 29 37  1  0
  9  7  1  1
  7 13  1  0
 10  8  1  1
  8 14  1  0
 37 28  1  1
  4  5  1  0
 33 30  1  6
 30 38  1  0
 34 31  1  1
 31 39  1  0
 35 32  1  1
 32 40  1  0
 41 42  1  0
 41 43  1  0
 15 19  2  0
 16 22  2  0
 12 17  1  6
 17 19  1  0
 17 20  1  0
 18 19  1  0
 18 22  1  0
 18 23  1  0
  9 10  1  0
  9 11  1  0
 10 12  1  0
 11  5  1  6
 33 34  1  0
 33 35  1  0
 34 36  1  0
 35 37  1  0
 36 42  1  6
 20 21  2  0
 21 22  1  0
M  CHG  2   2  -1  26  -1
M  END
>  <COMPND>  (93) 
    8629 

>  <AUTHOR>  (93) 
    GENERATED BY OPEN BABEL 3.1.1

>  <MASTER>  (93) 
        0    0    0    0    0    0    0    0   58    0   58    0

>  <minimizedAffinity>  (93) 
-7.81567

>  <CNNscore>  (93) 
0.4014031887

>  <CNNaffinity>  (93) 
3.9501595497

>  <CNN_VS>  (93) 
1.5856066942

>  <CNNaffinity_variance>  (93) 
0.6329532862

$$$$
94
     RDKit          3D

 43 45  0  0  0  0  0  0  0  0999 V2000
   22.5762   72.8608   -3.8881 P   0  0  2  0  0  0  0  0  0  0  0  0
   22.4250   74.4403   -4.2037 O   0  0  0  0  0  0  0  0  0  0  0  0
   23.6694   72.1652   -4.6448 O   0  0  0  0  0  0  0  0  0  0  0  0
   21.0845   72.2755   -4.1117 O   0  0  0  0  0  0  0  0  0  0  0  0
   20.7890   70.9759   -3.6306 C   0  0  0  0  0  0  0  0  0  0  0  0
   18.5158   71.3520   -4.3123 O   0  0  0  0  0  0  0  0  0  0  0  0
   17.7295   69.6493   -1.9728 O   0  0  0  0  0  0  0  0  0  0  0  0
   17.4999   67.9210   -4.0697 O   0  0  0  0  0  0  0  0  0  0  0  0
   18.8538   69.5245   -2.8421 C   0  0  1  0  0  0  0  0  0  0  0  0
   18.4194   68.9872   -4.1898 C   0  0  2  0  0  0  0  0  0  0  0  0
   19.3301   70.9274   -3.1975 C   0  0  1  0  0  0  0  0  0  0  0  0
   17.8067   70.2176   -4.8369 C   0  0  2  0  0  0  0  0  0  0  0  0
   17.4077   68.7659   -1.7318 H   0  0  0  0  0  0  0  0  0  0  0  0
   17.9371   67.1622   -3.6527 H   0  0  0  0  0  0  0  0  0  0  0  0
   15.9801   71.4342   -6.6149 O   0  0  0  0  0  0  0  0  0  0  0  0
   18.4067   70.1111  -10.3029 O   0  0  0  0  0  0  0  0  0  0  0  0
   17.9369   70.2068   -6.2667 N   0  0  0  0  0  0  0  0  0  0  0  0
   17.1899   70.7746   -8.4498 N   0  0  0  0  0  0  0  0  0  0  0  0
   16.9639   70.8466   -7.0693 C   0  0  0  0  0  0  0  0  0  0  0  0
   19.0203   69.5670   -6.8590 C   0  0  0  0  0  0  0  0  0  0  0  0
   19.2207   69.5062   -8.1771 C   0  0  0  0  0  0  0  0  0  0  0  0
   18.2504   70.1495   -9.0864 C   0  0  0  0  0  0  0  0  0  0  0  0
   16.5248   71.2130   -9.0288 H   0  0  0  0  0  0  0  0  0  0  0  0
   22.7431   72.8256   -2.2807 O   0  0  0  0  0  0  0  0  0  0  0  0
   22.0029   73.6699   -1.1178 P   0  0  2  0  0  0  0  0  0  0  0  0
   22.0385   72.6654    0.1499 O   0  0  0  0  0  0  0  0  0  0  0  0
   20.6301   74.1527   -1.4869 O   0  0  0  0  0  0  0  0  0  0  0  0
   23.0447   74.8426   -0.7381 O   0  0  0  0  0  0  0  0  0  0  0  0
   22.3193   77.0226   -0.1568 O   0  0  0  0  0  0  0  0  0  0  0  0
   26.1332   77.9218   -1.4592 O   0  0  0  0  0  0  0  0  0  0  0  0
   25.5324   78.0238    1.3474 O   0  0  0  0  0  0  0  0  0  0  0  0
   24.5746   75.9080   -2.8357 O   0  0  0  0  0  0  0  0  0  0  0  0
   25.1246   77.1255   -0.8315 C   0  0  1  0  0  0  0  0  0  0  0  0
   24.5370   77.9258    0.3325 C   0  0  1  0  0  0  0  0  0  0  0  0
   24.0417   76.7929   -1.8562 C   0  0  2  0  0  0  0  0  0  0  0  0
   23.2740   77.2524    0.8860 C   0  0  1  0  0  0  0  0  0  0  0  0
   22.8099   76.1721   -1.1949 C   0  0  1  0  0  0  0  0  0  0  0  0
   26.8241   78.1361   -0.8140 H   0  0  0  0  0  0  0  0  0  0  0  0
   26.3247   78.4503    0.9847 H   0  0  0  0  0  0  0  0  0  0  0  0
   25.3536   76.3126   -3.2471 H   0  0  0  0  0  0  0  0  0  0  0  0
   23.1578   77.8244    3.2030 O   0  0  0  0  0  0  0  0  0  0  0  0
   22.5830   78.1128    1.9417 C   0  0  0  0  0  0  0  0  0  0  0  0
   22.7280   78.3650    3.8847 H   0  0  0  0  0  0  0  0  0  0  0  0
 25 28  1  0
 25 24  1  0
 25 26  1  1
 25 27  2  0
  1  4  1  0
  1 24  1  0
  1  2  1  6
  1  3  2  0
  6 11  1  0
  6 12  1  0
 29 36  1  0
 29 37  1  0
  9  7  1  1
  7 13  1  0
 10  8  1  1
  8 14  1  0
 37 28  1  1
  4  5  1  0
 33 30  1  6
 30 38  1  0
 34 31  1  1
 31 39  1  0
 35 32  1  6
 32 40  1  0
 41 42  1  0
 41 43  1  0
 15 19  2  0
 16 22  2  0
 12 17  1  6
 17 19  1  0
 17 20  1  0
 18 19  1  0
 18 22  1  0
 18 23  1  0
  9 10  1  0
  9 11  1  0
 10 12  1  0
 11  5  1  6
 33 34  1  0
 33 35  1  0
 34 36  1  0
 35 37  1  0
 36 42  1  1
 20 21  2  0
 21 22  1  0
M  CHG  2   2  -1  26  -1
M  END
>  <COMPND>  (94) 
    8629 

>  <AUTHOR>  (94) 
    GENERATED BY OPEN BABEL 3.1.1

>  <MASTER>  (94) 
        0    0    0    0    0    0    0    0   58    0   58    0

>  <minimizedAffinity>  (94) 
-6.54053

>  <CNNscore>  (94) 
0.3939479589

>  <CNNaffinity>  (94) 
4.2670702934

>  <CNN_VS>  (94) 
1.6810036898

>  <CNNaffinity_variance>  (94) 
0.1025551185

$$$$
95
     RDKit          3D

 43 45  0  0  0  0  0  0  0  0999 V2000
   16.2742   73.4028   -5.3433 P   0  0  2  0  0  0  0  0  0  0  0  0
   15.1512   72.9979   -4.2513 O   0  0  0  0  0  0  0  0  0  0  0  0
   15.9242   74.5796   -6.2059 O   0  0  0  0  0  0  0  0  0  0  0  0
   16.5691   72.0191   -6.1284 O   0  0  0  0  0  0  0  0  0  0  0  0
   16.9863   72.0849   -7.4810 C   0  0  0  0  0  0  0  0  0  0  0  0
   18.9427   71.4196   -6.2548 O   0  0  0  0  0  0  0  0  0  0  0  0
   20.2760   71.0989   -8.9213 O   0  0  0  0  0  0  0  0  0  0  0  0
   19.6505   68.5292   -8.2566 O   0  0  0  0  0  0  0  0  0  0  0  0
   18.9247   70.8310   -8.5502 C   0  0  1  0  0  0  0  0  0  0  0  0
   18.8475   69.5634   -7.7251 C   0  0  2  0  0  0  0  0  0  0  0  0
   18.4952   71.8918   -7.5444 C   0  0  1  0  0  0  0  0  0  0  0  0
   19.3329   70.0412   -6.3671 C   0  0  2  0  0  0  0  0  0  0  0  0
   20.5725   70.4345   -9.5635 H   0  0  0  0  0  0  0  0  0  0  0  0
   19.3012   68.2599   -9.1204 H   0  0  0  0  0  0  0  0  0  0  0  0
   20.5825   69.6070   -3.8715 O   0  0  0  0  0  0  0  0  0  0  0  0
   16.9941   67.1857   -2.2897 O   0  0  0  0  0  0  0  0  0  0  0  0
   18.7478   69.3012   -5.2849 N   0  0  0  0  0  0  0  0  0  0  0  0
   18.7947   68.4019   -3.0859 N   0  0  0  0  0  0  0  0  0  0  0  0
   19.4594   69.1405   -4.0731 C   0  0  0  0  0  0  0  0  0  0  0  0
   17.4819   68.7443   -5.4308 C   0  0  0  0  0  0  0  0  0  0  0  0
   16.8625   68.0415   -4.4801 C   0  0  0  0  0  0  0  0  0  0  0  0
   17.5373   67.8274   -3.1837 C   0  0  0  0  0  0  0  0  0  0  0  0
   19.2713   68.2767   -2.2333 H   0  0  0  0  0  0  0  0  0  0  0  0
   17.6022   73.5999   -4.4430 O   0  0  0  0  0  0  0  0  0  0  0  0
   18.0552   72.9086   -3.0538 P   0  0  2  0  0  0  0  0  0  0  0  0
   17.3081   71.4740   -3.0924 O   0  0  0  0  0  0  0  0  0  0  0  0
   17.7574   73.7292   -1.8324 O   0  0  0  0  0  0  0  0  0  0  0  0
   19.6175   72.5604   -3.2611 O   0  0  0  0  0  0  0  0  0  0  0  0
   21.5082   73.4429   -2.1374 O   0  0  0  0  0  0  0  0  0  0  0  0
   23.1500   72.9343   -5.8919 O   0  0  0  0  0  0  0  0  0  0  0  0
   23.9163   71.1709   -3.7586 O   0  0  0  0  0  0  0  0  0  0  0  0
   20.4165   73.8480   -5.6230 O   0  0  0  0  0  0  0  0  0  0  0  0
   22.3049   72.6102   -4.7846 C   0  0  1  0  0  0  0  0  0  0  0  0
   23.1894   72.3798   -3.5577 C   0  0  1  0  0  0  0  0  0  0  0  0
   21.3370   73.7664   -4.5403 C   0  0  2  0  0  0  0  0  0  0  0  0
   22.3482   72.2911   -2.2772 C   0  0  1  0  0  0  0  0  0  0  0  0
   20.5864   73.6046   -3.2172 C   0  0  1  0  0  0  0  0  0  0  0  0
   23.7667   72.2040   -6.0527 H   0  0  0  0  0  0  0  0  0  0  0  0
   24.4428   71.2399   -4.5705 H   0  0  0  0  0  0  0  0  0  0  0  0
   20.9040   73.9506   -6.4547 H   0  0  0  0  0  0  0  0  0  0  0  0
   23.6038   70.8722   -0.8214 O   0  0  0  0  0  0  0  0  0  0  0  0
   23.2190   72.2194   -1.0247 C   0  0  0  0  0  0  0  0  0  0  0  0
   24.1588   70.8114   -0.0277 H   0  0  0  0  0  0  0  0  0  0  0  0
 25 28  1  0
 25 24  1  0
 25 26  1  1
 25 27  2  0
  1  4  1  0
  1 24  1  0
  1  2  1  1
  1  3  2  0
  6 11  1  0
  6 12  1  0
 29 36  1  0
 29 37  1  0
  9  7  1  1
  7 13  1  0
 10  8  1  6
  8 14  1  0
 37 28  1  6
  4  5  1  0
 33 30  1  6
 30 38  1  0
 34 31  1  6
 31 39  1  0
 35 32  1  6
 32 40  1  0
 41 42  1  0
 41 43  1  0
 15 19  2  0
 16 22  2  0
 12 17  1  1
 17 19  1  0
 17 20  1  0
 18 19  1  0
 18 22  1  0
 18 23  1  0
  9 10  1  0
  9 11  1  0
 10 12  1  0
 11  5  1  1
 33 34  1  0
 33 35  1  0
 34 36  1  0
 35 37  1  0
 36 42  1  1
 20 21  2  0
 21 22  1  0
M  CHG  2   2  -1  26  -1
M  END
>  <COMPND>  (95) 
    8629 

>  <AUTHOR>  (95) 
    GENERATED BY OPEN BABEL 3.1.1

>  <MASTER>  (95) 
        0    0    0    0    0    0    0    0   58    0   58    0

>  <minimizedAffinity>  (95) 
-6.86412

>  <CNNscore>  (95) 
0.3888576627

>  <CNNaffinity>  (95) 
4.1436972618

>  <CNN_VS>  (95) 
1.6113084555

>  <CNNaffinity_variance>  (95) 
0.6693469882

$$$$
96
     RDKit          3D

 43 45  0  0  0  0  0  0  0  0999 V2000
   18.1921   71.2908   -2.1497 P   0  0  2  0  0  0  0  0  0  0  0  0
   16.7671   72.0567   -2.1522 O   0  0  0  0  0  0  0  0  0  0  0  0
   18.2810   70.1205   -1.2149 O   0  0  0  0  0  0  0  0  0  0  0  0
   19.2681   72.4730   -1.8998 O   0  0  0  0  0  0  0  0  0  0  0  0
   19.6737   72.7480   -0.5702 C   0  0  0  0  0  0  0  0  0  0  0  0
   21.6263   71.8324   -1.6299 O   0  0  0  0  0  0  0  0  0  0  0  0
   23.0522   72.3747    0.9515 O   0  0  0  0  0  0  0  0  0  0  0  0
   23.8461   74.4604   -0.6157 O   0  0  0  0  0  0  0  0  0  0  0  0
   22.0299   73.1343    0.3086 C   0  0  1  0  0  0  0  0  0  0  0  0
   22.5943   73.8657   -0.8915 C   0  0  2  0  0  0  0  0  0  0  0  0
   21.0585   72.1575   -0.3422 C   0  0  1  0  0  0  0  0  0  0  0  0
   22.6898   72.7535   -1.9220 C   0  0  2  0  0  0  0  0  0  0  0  0
   23.6846   72.9771    1.3747 H   0  0  0  0  0  0  0  0  0  0  0  0
   23.7327   75.1614    0.0450 H   0  0  0  0  0  0  0  0  0  0  0  0
   23.8926   71.5778   -4.1912 O   0  0  0  0  0  0  0  0  0  0  0  0
   22.0186   74.6921   -7.0250 O   0  0  0  0  0  0  0  0  0  0  0  0
   22.5329   73.2363   -3.2650 N   0  0  0  0  0  0  0  0  0  0  0  0
   22.9583   73.1293   -5.6004 N   0  0  0  0  0  0  0  0  0  0  0  0
   23.1806   72.5740   -4.3338 C   0  0  0  0  0  0  0  0  0  0  0  0
   21.7436   74.3543   -3.5117 C   0  0  0  0  0  0  0  0  0  0  0  0
   21.5428   74.8721   -4.7253 C   0  0  0  0  0  0  0  0  0  0  0  0
   22.1837   74.2397   -5.8963 C   0  0  0  0  0  0  0  0  0  0  0  0
   23.3999   72.6848   -6.3602 H   0  0  0  0  0  0  0  0  0  0  0  0
   18.4106   70.9244   -3.7089 O   0  0  0  0  0  0  0  0  0  0  0  0
   19.3377   69.8053   -4.4166 P   0  0  2  0  0  0  0  0  0  0  0  0
   18.4469   68.4595   -4.3031 O   0  0  0  0  0  0  0  0  0  0  0  0
   20.7151   69.6873   -3.8311 O   0  0  0  0  0  0  0  0  0  0  0  0
   19.3080   70.1827   -5.9856 O   0  0  0  0  0  0  0  0  0  0  0  0
   17.0594   70.2507   -6.7311 O   0  0  0  0  0  0  0  0  0  0  0  0
   18.9716   70.7700  -10.3539 O   0  0  0  0  0  0  0  0  0  0  0  0
   17.6162   72.9893   -9.1350 O   0  0  0  0  0  0  0  0  0  0  0  0
   20.0706   68.9506   -8.3888 O   0  0  0  0  0  0  0  0  0  0  0  0
   18.7925   70.9156   -8.9425 C   0  0  1  0  0  0  0  0  0  0  0  0
   17.4674   71.6408   -8.6995 C   0  0  1  0  0  0  0  0  0  0  0  0
   18.7743   69.5316   -8.2962 C   0  0  2  0  0  0  0  0  0  0  0  0
   17.0765   71.5984   -7.2161 C   0  0  1  0  0  0  0  0  0  0  0  0
   18.3254   69.5963   -6.8352 C   0  0  1  0  0  0  0  0  0  0  0  0
   18.9845   71.6452  -10.7703 H   0  0  0  0  0  0  0  0  0  0  0  0
   17.8636   73.0020  -10.0731 H   0  0  0  0  0  0  0  0  0  0  0  0
   20.3432   68.9150   -9.3184 H   0  0  0  0  0  0  0  0  0  0  0  0
   15.0137   72.2686   -8.2185 O   0  0  0  0  0  0  0  0  0  0  0  0
   15.6840   72.1770   -6.9748 C   0  0  0  0  0  0  0  0  0  0  0  0
   14.1259   72.6350   -8.0803 H   0  0  0  0  0  0  0  0  0  0  0  0
 25 28  1  0
 25 24  1  0
 25 26  1  6
 25 27  2  0
  1  4  1  0
  1 24  1  0
  1  2  1  6
  1  3  2  0
  6 11  1  0
  6 12  1  0
 29 36  1  0
 29 37  1  0
  9  7  1  6
  7 13  1  0
 10  8  1  1
  8 14  1  0
 37 28  1  1
  4  5  1  0
 33 30  1  6
 30 38  1  0
 34 31  1  1
 31 39  1  0
 35 32  1  1
 32 40  1  0
 41 42  1  0
 41 43  1  0
 15 19  2  0
 16 22  2  0
 12 17  1  6
 17 19  1  0
 17 20  1  0
 18 19  1  0
 18 22  1  0
 18 23  1  0
  9 10  1  0
  9 11  1  0
 10 12  1  0
 11  5  1  6
 33 34  1  0
 33 35  1  0
 34 36  1  0
 35 37  1  0
 36 42  1  6
 20 21  2  0
 21 22  1  0
M  CHG  2   2  -1  26  -1
M  END
>  <COMPND>  (96) 
    8629 

>  <AUTHOR>  (96) 
    GENERATED BY OPEN BABEL 3.1.1

>  <MASTER>  (96) 
        0    0    0    0    0    0    0    0   58    0   58    0

>  <minimizedAffinity>  (96) 
-7.88206

>  <CNNscore>  (96) 
0.3817926049

>  <CNNaffinity>  (96) 
4.0629086494

>  <CNN_VS>  (96) 
1.5511884689

>  <CNNaffinity_variance>  (96) 
0.4990987182

$$$$
97
     RDKit          3D

 43 45  0  0  0  0  0  0  0  0999 V2000
   17.4177   69.7775   -3.3658 P   0  0  2  0  0  0  0  0  0  0  0  0
   18.1672   68.4161   -3.8154 O   0  0  0  0  0  0  0  0  0  0  0  0
   16.3040   69.5911   -2.3777 O   0  0  0  0  0  0  0  0  0  0  0  0
   17.0050   70.4745   -4.7665 O   0  0  0  0  0  0  0  0  0  0  0  0
   18.0156   70.6970   -5.7345 C   0  0  0  0  0  0  0  0  0  0  0  0
   16.0650   70.7027   -7.1377 O   0  0  0  0  0  0  0  0  0  0  0  0
   17.9555   70.4163   -9.4475 O   0  0  0  0  0  0  0  0  0  0  0  0
   17.3402   73.0723   -9.5087 O   0  0  0  0  0  0  0  0  0  0  0  0
   18.1165   71.1518   -8.2357 C   0  0  1  0  0  0  0  0  0  0  0  0
   17.2675   72.4056   -8.2649 C   0  0  2  0  0  0  0  0  0  0  0  0
   17.4664   70.3537   -7.1124 C   0  0  1  0  0  0  0  0  0  0  0  0
   15.8814   71.8544   -7.9772 C   0  0  2  0  0  0  0  0  0  0  0  0
   18.3632   70.9062  -10.1794 H   0  0  0  0  0  0  0  0  0  0  0  0
   18.2412   73.4045   -9.6455 H   0  0  0  0  0  0  0  0  0  0  0  0
   14.1557   73.6821   -9.2653 O   0  0  0  0  0  0  0  0  0  0  0  0
   12.7260   75.4419   -5.2528 O   0  0  0  0  0  0  0  0  0  0  0  0
   15.0464   72.8013   -7.2935 N   0  0  0  0  0  0  0  0  0  0  0  0
   13.4451   74.5568   -7.2663 N   0  0  0  0  0  0  0  0  0  0  0  0
   14.2170   73.6755   -8.0341 C   0  0  0  0  0  0  0  0  0  0  0  0
   15.0551   72.8565   -5.9040 C   0  0  0  0  0  0  0  0  0  0  0  0
   14.3140   73.7036   -5.1868 C   0  0  0  0  0  0  0  0  0  0  0  0
   13.4199   74.6506   -5.8839 C   0  0  0  0  0  0  0  0  0  0  0  0
   12.8599   75.1754   -7.7608 H   0  0  0  0  0  0  0  0  0  0  0  0
   18.6331   70.7057   -2.8423 O   0  0  0  0  0  0  0  0  0  0  0  0
   19.9676   70.3365   -2.0082 P   0  0  2  0  0  0  0  0  0  0  0  0
   21.0430   69.9855   -3.1650 O   0  0  0  0  0  0  0  0  0  0  0  0
   19.7761   69.2497   -0.9904 O   0  0  0  0  0  0  0  0  0  0  0  0
   20.4702   71.7435   -1.3978 O   0  0  0  0  0  0  0  0  0  0  0  0
   21.0074   73.6558   -2.6906 O   0  0  0  0  0  0  0  0  0  0  0  0
   23.4718   74.3377    0.5518 O   0  0  0  0  0  0  0  0  0  0  0  0
   21.1235   75.9513    0.1915 O   0  0  0  0  0  0  0  0  0  0  0  0
   23.1074   71.6440   -0.4437 O   0  0  0  0  0  0  0  0  0  0  0  0
   22.2896   73.8854   -0.1139 C   0  0  1  0  0  0  0  0  0  0  0  0
   21.6440   75.0840   -0.8121 C   0  0  1  0  0  0  0  0  0  0  0  0
   22.6695   72.8111   -1.1312 C   0  0  2  0  0  0  0  0  0  0  0  0
   20.5260   74.6351   -1.7627 C   0  0  1  0  0  0  0  0  0  0  0  0
   21.5010   72.4730   -2.0587 C   0  0  1  0  0  0  0  0  0  0  0  0
   23.2375   75.0196    1.1995 H   0  0  0  0  0  0  0  0  0  0  0  0
   21.8394   76.2270    0.7853 H   0  0  0  0  0  0  0  0  0  0  0  0
   23.8475   71.8712    0.1398 H   0  0  0  0  0  0  0  0  0  0  0  0
   19.1689   75.2698   -3.6240 O   0  0  0  0  0  0  0  0  0  0  0  0
   19.9749   75.7970   -2.5864 C   0  0  0  0  0  0  0  0  0  0  0  0
   18.8111   75.9980   -4.1564 H   0  0  0  0  0  0  0  0  0  0  0  0
 25 28  1  0
 25 24  1  0
 25 26  1  6
 25 27  2  0
  1  4  1  0
  1 24  1  0
  1  2  1  6
  1  3  2  0
  6 11  1  0
  6 12  1  0
 29 36  1  0
 29 37  1  0
  9  7  1  6
  7 13  1  0
 10  8  1  6
  8 14  1  0
 37 28  1  1
  4  5  1  0
 33 30  1  6
 30 38  1  0
 34 31  1  1
 31 39  1  0
 35 32  1  1
 32 40  1  0
 41 42  1  0
 41 43  1  0
 15 19  2  0
 16 22  2  0
 12 17  1  1
 17 19  1  0
 17 20  1  0
 18 19  1  0
 18 22  1  0
 18 23  1  0
  9 10  1  0
  9 11  1  0
 10 12  1  0
 11  5  1  1
 33 34  1  0
 33 35  1  0
 34 36  1  0
 35 37  1  0
 36 42  1  6
 20 21  2  0
 21 22  1  0
M  CHG  2   2  -1  26  -1
M  END
>  <COMPND>  (97) 
    8629 

>  <AUTHOR>  (97) 
    GENERATED BY OPEN BABEL 3.1.1

>  <MASTER>  (97) 
        0    0    0    0    0    0    0    0   58    0   58    0

>  <minimizedAffinity>  (97) 
-6.86465

>  <CNNscore>  (97) 
0.3753064871

>  <CNNaffinity>  (97) 
4.0302209854

>  <CNN_VS>  (97) 
1.5125681162

>  <CNNaffinity_variance>  (97) 
0.1586507410

$$$$
98
     RDKit          3D

 43 45  0  0  0  0  0  0  0  0999 V2000
   19.0339   70.3926   -2.2824 P   0  0  2  0  0  0  0  0  0  0  0  0
   19.1866   69.5028   -0.9399 O   0  0  0  0  0  0  0  0  0  0  0  0
   19.9967   70.0516   -3.3816 O   0  0  0  0  0  0  0  0  0  0  0  0
   19.0915   71.9180   -1.7460 O   0  0  0  0  0  0  0  0  0  0  0  0
   18.5648   72.9443   -2.5689 C   0  0  0  0  0  0  0  0  0  0  0  0
   20.3043   73.9970   -1.2883 O   0  0  0  0  0  0  0  0  0  0  0  0
   19.8248   76.4243   -2.9822 O   0  0  0  0  0  0  0  0  0  0  0  0
   22.0589   75.3431   -4.1118 O   0  0  0  0  0  0  0  0  0  0  0  0
   19.7708   75.0457   -3.3453 C   0  0  1  0  0  0  0  0  0  0  0  0
   21.1692   74.4726   -3.4429 C   0  0  2  0  0  0  0  0  0  0  0  0
   19.1916   74.2725   -2.1672 C   0  0  1  0  0  0  0  0  0  0  0  0
   21.5320   74.2763   -1.9807 C   0  0  2  0  0  0  0  0  0  0  0  0
   20.1912   76.9386   -3.7192 H   0  0  0  0  0  0  0  0  0  0  0  0
   21.7860   75.4355   -5.0379 H   0  0  0  0  0  0  0  0  0  0  0  0
   22.8946   73.7470    0.4361 O   0  0  0  0  0  0  0  0  0  0  0  0
   24.9852   70.0436   -1.3404 O   0  0  0  0  0  0  0  0  0  0  0  0
   22.4382   73.1802   -1.7837 N   0  0  0  0  0  0  0  0  0  0  0  0
   23.9343   71.9033   -0.4503 N   0  0  0  0  0  0  0  0  0  0  0  0
   23.0716   73.0038   -0.5314 C   0  0  0  0  0  0  0  0  0  0  0  0
   22.6907   72.2939   -2.8252 C   0  0  0  0  0  0  0  0  0  0  0  0
   23.5171   71.2501   -2.7321 C   0  0  0  0  0  0  0  0  0  0  0  0
   24.2189   70.9949   -1.4576 C   0  0  0  0  0  0  0  0  0  0  0  0
   24.3870   71.7608    0.4125 H   0  0  0  0  0  0  0  0  0  0  0  0
   17.4761   70.2021   -2.6695 O   0  0  0  0  0  0  0  0  0  0  0  0
   16.7303   69.0625   -3.5402 P   0  0  2  0  0  0  0  0  0  0  0  0
   15.2451   69.0191   -2.9000 O   0  0  0  0  0  0  0  0  0  0  0  0
   17.4372   67.7381   -3.5547 O   0  0  0  0  0  0  0  0  0  0  0  0
   16.5273   69.7284   -4.9963 O   0  0  0  0  0  0  0  0  0  0  0  0
   18.3842   70.9111   -5.8735 O   0  0  0  0  0  0  0  0  0  0  0  0
   15.4348   72.3696   -8.3683 O   0  0  0  0  0  0  0  0  0  0  0  0
   17.3679   70.5098   -9.3941 O   0  0  0  0  0  0  0  0  0  0  0  0
   14.8619   71.9135   -5.5677 O   0  0  0  0  0  0  0  0  0  0  0  0
   16.0953   71.3854   -7.5680 C   0  0  1  0  0  0  0  0  0  0  0  0
   17.4987   71.1677   -8.1370 C   0  0  1  0  0  0  0  0  0  0  0  0
   16.1710   71.8835   -6.1259 C   0  0  2  0  0  0  0  0  0  0  0  0
   18.3597   70.3296   -7.1823 C   0  0  1  0  0  0  0  0  0  0  0  0
   17.0910   71.0077   -5.2734 C   0  0  1  0  0  0  0  0  0  0  0  0
   15.3829   72.0593   -9.2851 H   0  0  0  0  0  0  0  0  0  0  0  0
   16.8217   71.0492   -9.9874 H   0  0  0  0  0  0  0  0  0  0  0  0
   14.2893   72.4714   -6.1162 H   0  0  0  0  0  0  0  0  0  0  0  0
   19.9726   69.0131   -8.3545 O   0  0  0  0  0  0  0  0  0  0  0  0
   19.8087   70.2328   -7.6547 C   0  0  0  0  0  0  0  0  0  0  0  0
   20.8902   68.9379   -8.6614 H   0  0  0  0  0  0  0  0  0  0  0  0
 25 28  1  0
 25 24  1  0
 25 26  1  1
 25 27  2  0
  1  4  1  0
  1 24  1  0
  1  2  1  1
  1  3  2  0
  6 11  1  0
  6 12  1  0
 29 36  1  0
 29 37  1  0
  9  7  1  1
  7 13  1  0
 10  8  1  1
  8 14  1  0
 37 28  1  6
  4  5  1  0
 33 30  1  6
 30 38  1  0
 34 31  1  6
 31 39  1  0
 35 32  1  1
 32 40  1  0
 41 42  1  0
 41 43  1  0
 15 19  2  0
 16 22  2  0
 12 17  1  6
 17 19  1  0
 17 20  1  0
 18 19  1  0
 18 22  1  0
 18 23  1  0
  9 10  1  0
  9 11  1  0
 10 12  1  0
 11  5  1  6
 33 34  1  0
 33 35  1  0
 34 36  1  0
 35 37  1  0
 36 42  1  6
 20 21  2  0
 21 22  1  0
M  CHG  2   2  -1  26  -1
M  END
>  <COMPND>  (98) 
    8629 

>  <AUTHOR>  (98) 
    GENERATED BY OPEN BABEL 3.1.1

>  <MASTER>  (98) 
        0    0    0    0    0    0    0    0   58    0   58    0

>  <minimizedAffinity>  (98) 
-7.26312

>  <CNNscore>  (98) 
0.3747533262

>  <CNNaffinity>  (98) 
3.9701702595

>  <CNN_VS>  (98) 
1.4878344536

>  <CNNaffinity_variance>  (98) 
0.6361633539

$$$$
99
     RDKit          3D

 43 45  0  0  0  0  0  0  0  0999 V2000
   23.0835   71.5736   -3.2802 P   0  0  2  0  0  0  0  0  0  0  0  0
   22.7071   72.3252   -4.6625 O   0  0  0  0  0  0  0  0  0  0  0  0
   24.2548   70.6397   -3.3653 O   0  0  0  0  0  0  0  0  0  0  0  0
   21.6868   70.9077   -2.8073 O   0  0  0  0  0  0  0  0  0  0  0  0
   20.8618   70.3003   -3.7862 C   0  0  0  0  0  0  0  0  0  0  0  0
   18.7059   71.0928   -4.4918 O   0  0  0  0  0  0  0  0  0  0  0  0
   17.5748   69.4319   -2.2662 O   0  0  0  0  0  0  0  0  0  0  0  0
   17.1176   67.8773   -4.4595 O   0  0  0  0  0  0  0  0  0  0  0  0
   18.6867   69.1618   -3.1182 C   0  0  1  0  0  0  0  0  0  0  0  0
   18.2074   68.7758   -4.5020 C   0  0  2  0  0  0  0  0  0  0  0  0
   19.4037   70.4792   -3.3859 C   0  0  1  0  0  0  0  0  0  0  0  0
   17.8308   70.1241   -5.0924 C   0  0  2  0  0  0  0  0  0  0  0  0
   17.1014   68.6052   -2.0808 H   0  0  0  0  0  0  0  0  0  0  0  0
   17.4077   67.0348   -4.0763 H   0  0  0  0  0  0  0  0  0  0  0  0
   16.0231   71.3569   -6.8786 O   0  0  0  0  0  0  0  0  0  0  0  0
   18.5776   70.2144  -10.5406 O   0  0  0  0  0  0  0  0  0  0  0  0
   17.9990   70.1641   -6.5177 N   0  0  0  0  0  0  0  0  0  0  0  0
   17.2966   70.7872   -8.7005 N   0  0  0  0  0  0  0  0  0  0  0  0
   17.0324   70.8078   -7.3251 C   0  0  0  0  0  0  0  0  0  0  0  0
   19.1127   69.5697   -7.1009 C   0  0  0  0  0  0  0  0  0  0  0  0
   19.3493   69.5577   -8.4144 C   0  0  0  0  0  0  0  0  0  0  0  0
   18.3884   70.2085   -9.3282 C   0  0  0  0  0  0  0  0  0  0  0  0
   16.6368   71.2292   -9.2827 H   0  0  0  0  0  0  0  0  0  0  0  0
   23.2729   72.7972   -2.2410 O   0  0  0  0  0  0  0  0  0  0  0  0
   22.7472   72.9935   -0.7251 P   0  0  2  0  0  0  0  0  0  0  0  0
   23.5789   74.2811   -0.2077 O   0  0  0  0  0  0  0  0  0  0  0  0
   22.8921   71.7745    0.1392 O   0  0  0  0  0  0  0  0  0  0  0  0
   21.2313   73.5243   -0.8839 O   0  0  0  0  0  0  0  0  0  0  0  0
   19.7998   74.7069    0.5887 O   0  0  0  0  0  0  0  0  0  0  0  0
   17.0475   72.1084   -1.0616 O   0  0  0  0  0  0  0  0  0  0  0  0
   16.9908   74.8853   -1.7918 O   0  0  0  0  0  0  0  0  0  0  0  0
   19.7290   71.1897   -0.4741 O   0  0  0  0  0  0  0  0  0  0  0  0
   18.1992   72.9563   -1.0573 C   0  0  1  0  0  0  0  0  0  0  0  0
   17.7495   74.3742   -0.6993 C   0  0  1  0  0  0  0  0  0  0  0  0
   19.2000   72.4338   -0.0282 C   0  0  2  0  0  0  0  0  0  0  0  0
   18.9536   75.2818   -0.4139 C   0  0  1  0  0  0  0  0  0  0  0  0
   20.3314   73.4336    0.2175 C   0  0  1  0  0  0  0  0  0  0  0  0
   16.4083   72.4344   -1.7132 H   0  0  0  0  0  0  0  0  0  0  0  0
   16.2339   74.3029   -1.9620 H   0  0  0  0  0  0  0  0  0  0  0  0
   19.0030   70.5655   -0.6258 H   0  0  0  0  0  0  0  0  0  0  0  0
   18.1128   77.4381   -1.0075 O   0  0  0  0  0  0  0  0  0  0  0  0
   18.5257   76.6556    0.0977 C   0  0  0  0  0  0  0  0  0  0  0  0
   17.8373   78.3152   -0.6970 H   0  0  0  0  0  0  0  0  0  0  0  0
 25 28  1  0
 25 24  1  0
 25 26  1  1
 25 27  2  0
  1  4  1  0
  1 24  1  0
  1  2  1  6
  1  3  2  0
  6 11  1  0
  6 12  1  0
 29 36  1  0
 29 37  1  0
  9  7  1  1
  7 13  1  0
 10  8  1  1
  8 14  1  0
 37 28  1  6
  4  5  1  0
 33 30  1  1
 30 38  1  0
 34 31  1  6
 31 39  1  0
 35 32  1  6
 32 40  1  0
 41 42  1  0
 41 43  1  0
 15 19  2  0
 16 22  2  0
 12 17  1  6
 17 19  1  0
 17 20  1  0
 18 19  1  0
 18 22  1  0
 18 23  1  0
  9 10  1  0
  9 11  1  0
 10 12  1  0
 11  5  1  6
 33 34  1  0
 33 35  1  0
 34 36  1  0
 35 37  1  0
 36 42  1  1
 20 21  2  0
 21 22  1  0
M  CHG  2   2  -1  26  -1
M  END
>  <COMPND>  (99) 
    8629 

>  <AUTHOR>  (99) 
    GENERATED BY OPEN BABEL 3.1.1

>  <MASTER>  (99) 
        0    0    0    0    0    0    0    0   58    0   58    0

>  <minimizedAffinity>  (99) 
-7.63153

>  <CNNscore>  (99) 
0.3351945579

>  <CNNaffinity>  (99) 
4.2279653549

>  <CNN_VS>  (99) 
1.4171910286

>  <CNNaffinity_variance>  (99) 
0.1668945551

$$$$
100
     RDKit          3D

 43 45  0  0  0  0  0  0  0  0999 V2000
   21.1856   71.0803   -1.6680 P   0  0  2  0  0  0  0  0  0  0  0  0
   22.4931   70.6944   -0.7968 O   0  0  0  0  0  0  0  0  0  0  0  0
   20.3315   72.1659   -1.0820 O   0  0  0  0  0  0  0  0  0  0  0  0
   20.4485   69.6608   -1.9118 O   0  0  0  0  0  0  0  0  0  0  0  0
   19.7972   69.4412   -3.1510 C   0  0  0  0  0  0  0  0  0  0  0  0
   17.8562   70.5117   -4.0783 O   0  0  0  0  0  0  0  0  0  0  0  0
   16.2436   68.6635   -2.3536 O   0  0  0  0  0  0  0  0  0  0  0  0
   16.0891   67.4763   -4.8038 O   0  0  0  0  0  0  0  0  0  0  0  0
   17.4708   68.4175   -3.0384 C   0  0  1  0  0  0  0  0  0  0  0  0
   17.2231   68.2721   -4.5254 C   0  0  2  0  0  0  0  0  0  0  0  0
   18.3053   69.6908   -2.9780 C   0  0  1  0  0  0  0  0  0  0  0  0
   17.0434   69.7174   -4.9577 C   0  0  2  0  0  0  0  0  0  0  0  0
   15.6938   67.8641   -2.3786 H   0  0  0  0  0  0  0  0  0  0  0  0
   16.2526   66.5663   -4.5105 H   0  0  0  0  0  0  0  0  0  0  0  0
   15.6754   71.3573   -6.8063 O   0  0  0  0  0  0  0  0  0  0  0  0
   18.7554   70.4990  -10.1257 O   0  0  0  0  0  0  0  0  0  0  0  0
   17.4658   69.9406   -6.3117 N   0  0  0  0  0  0  0  0  0  0  0  0
   17.2102   70.9287   -8.4575 N   0  0  0  0  0  0  0  0  0  0  0  0
   16.7069   70.7814   -7.1587 C   0  0  0  0  0  0  0  0  0  0  0  0
   18.6210   69.3294   -6.7869 C   0  0  0  0  0  0  0  0  0  0  0  0
   19.0868   69.4791   -8.0286 C   0  0  0  0  0  0  0  0  0  0  0  0
   18.3528   70.3413   -8.9772 C   0  0  0  0  0  0  0  0  0  0  0  0
   16.6978   71.5096   -9.0656 H   0  0  0  0  0  0  0  0  0  0  0  0
   21.8052   71.4224   -3.1213 O   0  0  0  0  0  0  0  0  0  0  0  0
   22.4753   72.7757   -3.6978 P   0  0  2  0  0  0  0  0  0  0  0  0
   23.7109   72.2282   -4.5872 O   0  0  0  0  0  0  0  0  0  0  0  0
   22.8651   73.7680   -2.6407 O   0  0  0  0  0  0  0  0  0  0  0  0
   21.4110   73.3310   -4.7766 O   0  0  0  0  0  0  0  0  0  0  0  0
   20.7825   75.5281   -5.4047 O   0  0  0  0  0  0  0  0  0  0  0  0
   17.0664   73.7296   -5.4879 O   0  0  0  0  0  0  0  0  0  0  0  0
   18.3557   74.4353   -7.9552 O   0  0  0  0  0  0  0  0  0  0  0  0
   18.9705   73.0153   -3.4278 O   0  0  0  0  0  0  0  0  0  0  0  0
   18.4854   73.7970   -5.6538 C   0  0  1  0  0  0  0  0  0  0  0  0
   18.7970   74.8893   -6.6787 C   0  0  1  0  0  0  0  0  0  0  0  0
   19.1304   74.1227   -4.3080 C   0  0  2  0  0  0  0  0  0  0  0  0
   20.2986   75.2043   -6.7134 C   0  0  1  0  0  0  0  0  0  0  0  0
   20.6126   74.4687   -4.4610 C   0  0  1  0  0  0  0  0  0  0  0  0
   16.6508   73.5226   -6.3387 H   0  0  0  0  0  0  0  0  0  0  0  0
   17.4062   74.2395   -7.9196 H   0  0  0  0  0  0  0  0  0  0  0  0
   18.0280   72.8064   -3.3391 H   0  0  0  0  0  0  0  0  0  0  0  0
   19.3910   76.9981   -8.0047 O   0  0  0  0  0  0  0  0  0  0  0  0
   20.6119   76.3980   -7.6128 C   0  0  0  0  0  0  0  0  0  0  0  0
   19.5749   77.7596   -8.5774 H   0  0  0  0  0  0  0  0  0  0  0  0
 25 28  1  0
 25 24  1  0
 25 26  1  6
 25 27  2  0
  1  4  1  0
  1 24  1  0
  1  2  1  1
  1  3  2  0
  6 11  1  0
  6 12  1  0
 29 36  1  0
 29 37  1  0
  9  7  1  1
  7 13  1  0
 10  8  1  1
  8 14  1  0
 37 28  1  6
  4  5  1  0
 33 30  1  1
 30 38  1  0
 34 31  1  6
 31 39  1  0
 35 32  1  1
 32 40  1  0
 41 42  1  0
 41 43  1  0
 15 19  2  0
 16 22  2  0
 12 17  1  6
 17 19  1  0
 17 20  1  0
 18 19  1  0
 18 22  1  0
 18 23  1  0
  9 10  1  0
  9 11  1  0
 10 12  1  0
 11  5  1  6
 33 34  1  0
 33 35  1  0
 34 36  1  0
 35 37  1  0
 36 42  1  6
 20 21  2  0
 21 22  1  0
M  CHG  2   2  -1  26  -1
M  END
>  <COMPND>  (100) 
    8629 

>  <AUTHOR>  (100) 
    GENERATED BY OPEN BABEL 3.1.1

>  <MASTER>  (100) 
        0    0    0    0    0    0    0    0   58    0   58    0

>  <minimizedAffinity>  (100) 
-7.19334

>  <CNNscore>  (100) 
0.3203847408

>  <CNNaffinity>  (100) 
4.1019439697

>  <CNN_VS>  (100) 
1.3142002821

>  <CNNaffinity_variance>  (100) 
0.5392140150

$$$$
101
     RDKit          3D

 43 45  0  0  0  0  0  0  0  0999 V2000
   22.5091   73.3112   -6.7419 P   0  0  2  0  0  0  0  0  0  0  0  0
   23.0726   74.0892   -8.0437 O   0  0  0  0  0  0  0  0  0  0  0  0
   23.5620   72.8168   -5.7940 O   0  0  0  0  0  0  0  0  0  0  0  0
   21.5317   72.1790   -7.3589 O   0  0  0  0  0  0  0  0  0  0  0  0
   20.1310   72.3569   -7.2394 C   0  0  0  0  0  0  0  0  0  0  0  0
   19.7058   70.0169   -6.8967 O   0  0  0  0  0  0  0  0  0  0  0  0
   17.4058   70.3488   -8.7916 O   0  0  0  0  0  0  0  0  0  0  0  0
   16.1780   70.3725   -6.3567 O   0  0  0  0  0  0  0  0  0  0  0  0
   17.9091   71.2594   -7.8154 C   0  0  1  0  0  0  0  0  0  0  0  0
   17.5215   70.8055   -6.4236 C   0  0  2  0  0  0  0  0  0  0  0  0
   19.4262   71.1220   -7.7838 C   0  0  1  0  0  0  0  0  0  0  0  0
   18.5114   69.6808   -6.1718 C   0  0  2  0  0  0  0  0  0  0  0  0
   16.4385   70.4187   -8.8302 H   0  0  0  0  0  0  0  0  0  0  0  0
   15.5874   71.1236   -6.5236 H   0  0  0  0  0  0  0  0  0  0  0  0
   16.8508   68.4157   -4.2692 O   0  0  0  0  0  0  0  0  0  0  0  0
   19.8554   69.1903   -0.8612 O   0  0  0  0  0  0  0  0  0  0  0  0
   18.8352   69.5374   -4.7804 N   0  0  0  0  0  0  0  0  0  0  0  0
   18.3483   68.8023   -2.5739 N   0  0  0  0  0  0  0  0  0  0  0  0
   17.9316   68.8864   -3.9085 C   0  0  0  0  0  0  0  0  0  0  0  0
   20.0372   70.0391   -4.2934 C   0  0  0  0  0  0  0  0  0  0  0  0
   20.4192   69.9519   -3.0175 C   0  0  0  0  0  0  0  0  0  0  0  0
   19.5326   69.2863   -2.0413 C   0  0  0  0  0  0  0  0  0  0  0  0
   17.7347   68.3531   -1.9481 H   0  0  0  0  0  0  0  0  0  0  0  0
   21.4741   74.3754   -6.1022 O   0  0  0  0  0  0  0  0  0  0  0  0
   21.7105   75.5986   -5.0723 P   0  0  2  0  0  0  0  0  0  0  0  0
   20.5734   76.6677   -5.4988 O   0  0  0  0  0  0  0  0  0  0  0  0
   23.1084   76.1461   -5.0776 O   0  0  0  0  0  0  0  0  0  0  0  0
   21.2202   75.0302   -3.6435 O   0  0  0  0  0  0  0  0  0  0  0  0
   21.7290   72.8349   -2.9098 O   0  0  0  0  0  0  0  0  0  0  0  0
   18.3154   73.4999   -0.6837 O   0  0  0  0  0  0  0  0  0  0  0  0
   20.8759   73.4850    0.6170 O   0  0  0  0  0  0  0  0  0  0  0  0
   18.4792   74.4783   -3.4031 O   0  0  0  0  0  0  0  0  0  0  0  0
   19.5392   73.8585   -1.3310 C   0  0  1  0  0  0  0  0  0  0  0  0
   20.6679   73.0283   -0.7166 C   0  0  1  0  0  0  0  0  0  0  0  0
   19.4150   73.5736   -2.8266 C   0  0  2  0  0  0  0  0  0  0  0  0
   21.9601   73.1594   -1.5339 C   0  0  1  0  0  0  0  0  0  0  0  0
   20.7654   73.6837   -3.5366 C   0  0  1  0  0  0  0  0  0  0  0  0
   18.3874   73.6788    0.2662 H   0  0  0  0  0  0  0  0  0  0  0  0
   20.0523   73.3973    1.1222 H   0  0  0  0  0  0  0  0  0  0  0  0
   17.6284   74.3988   -2.9452 H   0  0  0  0  0  0  0  0  0  0  0  0
   22.4384   71.0556   -0.5071 O   0  0  0  0  0  0  0  0  0  0  0  0
   23.0528   72.2185   -1.0312 C   0  0  0  0  0  0  0  0  0  0  0  0
   23.1218   70.4474   -0.1836 H   0  0  0  0  0  0  0  0  0  0  0  0
 25 28  1  0
 25 24  1  0
 25 26  1  6
 25 27  2  0
  1  4  1  0
  1 24  1  0
  1  2  1  6
  1  3  2  0
  6 11  1  0
  6 12  1  0
 29 36  1  0
 29 37  1  0
  9  7  1  6
  7 13  1  0
 10  8  1  6
  8 14  1  0
 37 28  1  1
  4  5  1  0
 33 30  1  1
 30 38  1  0
 34 31  1  1
 31 39  1  0
 35 32  1  6
 32 40  1  0
 41 42  1  0
 41 43  1  0
 15 19  2  0
 16 22  2  0
 12 17  1  1
 17 19  1  0
 17 20  1  0
 18 19  1  0
 18 22  1  0
 18 23  1  0
  9 10  1  0
  9 11  1  0
 10 12  1  0
 11  5  1  1
 33 34  1  0
 33 35  1  0
 34 36  1  0
 35 37  1  0
 36 42  1  1
 20 21  2  0
 21 22  1  0
M  CHG  2   2  -1  26  -1
M  END
>  <COMPND>  (101) 
    8629 

>  <AUTHOR>  (101) 
    GENERATED BY OPEN BABEL 3.1.1

>  <MASTER>  (101) 
        0    0    0    0    0    0    0    0   58    0   58    0

>  <minimizedAffinity>  (101) 
-6.88900

>  <CNNscore>  (101) 
0.6846621633

>  <CNNaffinity>  (101) 
4.2822141647

>  <CNN_VS>  (101) 
2.9318699837

>  <CNNaffinity_variance>  (101) 
0.3529233336

$$$$
102
     RDKit          3D

 43 45  0  0  0  0  0  0  0  0999 V2000
   20.5149   70.5378   -1.6413 P   0  0  2  0  0  0  0  0  0  0  0  0
   20.1577   69.3339   -0.6213 O   0  0  0  0  0  0  0  0  0  0  0  0
   19.7178   71.7936   -1.4436 O   0  0  0  0  0  0  0  0  0  0  0  0
   20.3993   69.8551   -3.1037 O   0  0  0  0  0  0  0  0  0  0  0  0
   19.4999   68.7738   -3.2758 C   0  0  0  0  0  0  0  0  0  0  0  0
   17.8036   70.2459   -4.1297 O   0  0  0  0  0  0  0  0  0  0  0  0
   15.8504   68.6048   -2.5541 O   0  0  0  0  0  0  0  0  0  0  0  0
   15.5258   67.6459   -5.0862 O   0  0  0  0  0  0  0  0  0  0  0  0
   17.0241   68.1882   -3.2498 C   0  0  1  0  0  0  0  0  0  0  0  0
   16.7808   68.1983   -4.7446 C   0  0  2  0  0  0  0  0  0  0  0  0
   18.0756   69.2793   -3.0914 C   0  0  1  0  0  0  0  0  0  0  0  0
   16.8755   69.6795   -5.0692 C   0  0  2  0  0  0  0  0  0  0  0  0
   15.1645   67.9236   -2.6407 H   0  0  0  0  0  0  0  0  0  0  0  0
   15.5154   66.7027   -4.8606 H   0  0  0  0  0  0  0  0  0  0  0  0
   15.5531   71.2880   -6.9775 O   0  0  0  0  0  0  0  0  0  0  0  0
   18.8100   70.5247  -10.1478 O   0  0  0  0  0  0  0  0  0  0  0  0
   17.3557   69.9186   -6.4009 N   0  0  0  0  0  0  0  0  0  0  0  0
   17.1759   70.9068   -8.5545 N   0  0  0  0  0  0  0  0  0  0  0  0
   16.6154   70.7415   -7.2815 C   0  0  0  0  0  0  0  0  0  0  0  0
   18.5484   69.3405   -6.8218 C   0  0  0  0  0  0  0  0  0  0  0  0
   19.0686   69.5070   -8.0395 C   0  0  0  0  0  0  0  0  0  0  0  0
   18.3575   70.3522   -9.0203 C   0  0  0  0  0  0  0  0  0  0  0  0
   16.6775   71.4757   -9.1850 H   0  0  0  0  0  0  0  0  0  0  0  0
   22.1099   70.7162   -1.4487 O   0  0  0  0  0  0  0  0  0  0  0  0
   23.1764   71.6451   -2.2315 P   0  0  2  0  0  0  0  0  0  0  0  0
   24.4262   70.6478   -2.4783 O   0  0  0  0  0  0  0  0  0  0  0  0
   23.5301   72.9151   -1.5132 O   0  0  0  0  0  0  0  0  0  0  0  0
   22.5324   71.8616   -3.6955 O   0  0  0  0  0  0  0  0  0  0  0  0
   23.0316   74.0223   -4.5316 O   0  0  0  0  0  0  0  0  0  0  0  0
   20.3301   72.8091   -7.4093 O   0  0  0  0  0  0  0  0  0  0  0  0
   23.1219   72.9707   -8.0636 O   0  0  0  0  0  0  0  0  0  0  0  0
   19.8992   72.1031   -4.6352 O   0  0  0  0  0  0  0  0  0  0  0  0
   21.3824   72.6390   -6.4558 C   0  0  1  0  0  0  0  0  0  0  0  0
   22.5585   73.5224   -6.8767 C   0  0  1  0  0  0  0  0  0  0  0  0
   20.8737   73.0438   -5.0735 C   0  0  2  0  0  0  0  0  0  0  0  0
   23.6173   73.6002   -5.7687 C   0  0  1  0  0  0  0  0  0  0  0  0
   22.0135   73.1387   -4.0576 C   0  0  1  0  0  0  0  0  0  0  0  0
   20.6465   72.5533   -8.2891 H   0  0  0  0  0  0  0  0  0  0  0  0
   22.4428   72.9267   -8.7551 H   0  0  0  0  0  0  0  0  0  0  0  0
   19.1830   72.0525   -5.2866 H   0  0  0  0  0  0  0  0  0  0  0  0
   25.4297   74.1260   -7.2342 O   0  0  0  0  0  0  0  0  0  0  0  0
   24.7225   74.5996   -6.1029 C   0  0  0  0  0  0  0  0  0  0  0  0
   26.1361   74.7523   -7.4587 H   0  0  0  0  0  0  0  0  0  0  0  0
 25 28  1  0
 25 24  1  0
 25 26  1  6
 25 27  2  0
  1  4  1  0
  1 24  1  0
  1  2  1  1
  1  3  2  0
  6 11  1  0
  6 12  1  0
 29 36  1  0
 29 37  1  0
  9  7  1  1
  7 13  1  0
 10  8  1  1
  8 14  1  0
 37 28  1  6
  4  5  1  0
 33 30  1  6
 30 38  1  0
 34 31  1  6
 31 39  1  0
 35 32  1  1
 32 40  1  0
 41 42  1  0
 41 43  1  0
 15 19  2  0
 16 22  2  0
 12 17  1  6
 17 19  1  0
 17 20  1  0
 18 19  1  0
 18 22  1  0
 18 23  1  0
  9 10  1  0
  9 11  1  0
 10 12  1  0
 11  5  1  6
 33 34  1  0
 33 35  1  0
 34 36  1  0
 35 37  1  0
 36 42  1  6
 20 21  2  0
 21 22  1  0
M  CHG  2   2  -1  26  -1
M  END
>  <COMPND>  (102) 
    8629 

>  <AUTHOR>  (102) 
    GENERATED BY OPEN BABEL 3.1.1

>  <MASTER>  (102) 
        0    0    0    0    0    0    0    0   58    0   58    0

>  <minimizedAffinity>  (102) 
-8.63870

>  <CNNscore>  (102) 
0.6407992840

>  <CNNaffinity>  (102) 
4.4939436913

>  <CNN_VS>  (102) 
2.8797159195

>  <CNNaffinity_variance>  (102) 
0.6596025229

$$$$
103
     RDKit          3D

 43 45  0  0  0  0  0  0  0  0999 V2000
   22.6400   73.3303   -6.9179 P   0  0  2  0  0  0  0  0  0  0  0  0
   23.1284   74.0257   -8.2946 O   0  0  0  0  0  0  0  0  0  0  0  0
   23.7439   72.9291   -5.9841 O   0  0  0  0  0  0  0  0  0  0  0  0
   21.6670   72.1350   -7.4104 O   0  0  0  0  0  0  0  0  0  0  0  0
   20.2662   72.3092   -7.2871 C   0  0  0  0  0  0  0  0  0  0  0  0
   19.7956   69.9796   -6.9334 O   0  0  0  0  0  0  0  0  0  0  0  0
   17.5673   70.3220   -8.9103 O   0  0  0  0  0  0  0  0  0  0  0  0
   16.2569   70.3911   -6.5198 O   0  0  0  0  0  0  0  0  0  0  0  0
   18.0498   71.2366   -7.9275 C   0  0  1  0  0  0  0  0  0  0  0  0
   17.6079   70.8043   -6.5450 C   0  0  2  0  0  0  0  0  0  0  0  0
   19.5628   71.0782   -7.8419 C   0  0  1  0  0  0  0  0  0  0  0  0
   18.5722   69.6688   -6.2467 C   0  0  2  0  0  0  0  0  0  0  0  0
   16.6030   70.4050   -8.9832 H   0  0  0  0  0  0  0  0  0  0  0  0
   15.6833   71.1484   -6.7154 H   0  0  0  0  0  0  0  0  0  0  0  0
   16.9223   68.2798   -4.4229 O   0  0  0  0  0  0  0  0  0  0  0  0
   19.7203   69.2295   -0.8859 O   0  0  0  0  0  0  0  0  0  0  0  0
   18.8458   69.5370   -4.8434 N   0  0  0  0  0  0  0  0  0  0  0  0
   18.3169   68.7537   -2.6632 N   0  0  0  0  0  0  0  0  0  0  0  0
   17.9524   68.8196   -4.0141 C   0  0  0  0  0  0  0  0  0  0  0  0
   19.9893   70.1150   -4.3030 C   0  0  0  0  0  0  0  0  0  0  0  0
   20.3219   70.0440   -3.0124 C   0  0  0  0  0  0  0  0  0  0  0  0
   19.4420   69.3126   -2.0781 C   0  0  0  0  0  0  0  0  0  0  0  0
   17.7093   68.2593   -2.0664 H   0  0  0  0  0  0  0  0  0  0  0  0
   21.6056   74.4138   -6.3104 O   0  0  0  0  0  0  0  0  0  0  0  0
   21.7224   75.3894   -5.0269 P   0  0  2  0  0  0  0  0  0  0  0  0
   20.2691   76.0979   -4.9658 O   0  0  0  0  0  0  0  0  0  0  0  0
   22.8765   76.3478   -5.0853 O   0  0  0  0  0  0  0  0  0  0  0  0
   21.7438   74.3932   -3.7572 O   0  0  0  0  0  0  0  0  0  0  0  0
   22.8121   75.3614   -1.8762 O   0  0  0  0  0  0  0  0  0  0  0  0
   22.4829   71.4750   -0.5202 O   0  0  0  0  0  0  0  0  0  0  0  0
   20.8018   73.5154    0.6017 O   0  0  0  0  0  0  0  0  0  0  0  0
   23.1121   71.9863   -3.2991 O   0  0  0  0  0  0  0  0  0  0  0  0
   22.0716   72.6467   -1.2297 C   0  0  1  0  0  0  0  0  0  0  0  0
   21.9297   73.7911   -0.2242 C   0  0  1  0  0  0  0  0  0  0  0  0
   23.1223   72.9857   -2.2853 C   0  0  2  0  0  0  0  0  0  0  0  0
   21.7524   75.1376   -0.9388 C   0  0  1  0  0  0  0  0  0  0  0  0
   22.8815   74.3660   -2.8991 C   0  0  1  0  0  0  0  0  0  0  0  0
   21.8198   71.2541    0.1513 H   0  0  0  0  0  0  0  0  0  0  0  0
   20.9262   72.6624    1.0467 H   0  0  0  0  0  0  0  0  0  0  0  0
   23.2659   71.1173   -2.8979 H   0  0  0  0  0  0  0  0  0  0  0  0
   20.4780   76.4343    0.6115 O   0  0  0  0  0  0  0  0  0  0  0  0
   21.7670   76.3104    0.0392 C   0  0  0  0  0  0  0  0  0  0  0  0
   20.4724   77.1767    1.2365 H   0  0  0  0  0  0  0  0  0  0  0  0
 25 28  1  0
 25 24  1  0
 25 26  1  1
 25 27  2  0
  1  4  1  0
  1 24  1  0
  1  2  1  6
  1  3  2  0
  6 11  1  0
  6 12  1  0
 29 36  1  0
 29 37  1  0
  9  7  1  6
  7 13  1  0
 10  8  1  6
  8 14  1  0
 37 28  1  1
  4  5  1  0
 33 30  1  1
 30 38  1  0
 34 31  1  1
 31 39  1  0
 35 32  1  6
 32 40  1  0
 41 42  1  0
 41 43  1  0
 15 19  2  0
 16 22  2  0
 12 17  1  1
 17 19  1  0
 17 20  1  0
 18 19  1  0
 18 22  1  0
 18 23  1  0
  9 10  1  0
  9 11  1  0
 10 12  1  0
 11  5  1  1
 33 34  1  0
 33 35  1  0
 34 36  1  0
 35 37  1  0
 36 42  1  1
 20 21  2  0
 21 22  1  0
M  CHG  2   2  -1  26  -1
M  END
>  <COMPND>  (103) 
    8629 

>  <AUTHOR>  (103) 
    GENERATED BY OPEN BABEL 3.1.1

>  <MASTER>  (103) 
        0    0    0    0    0    0    0    0   58    0   58    0

>  <minimizedAffinity>  (103) 
-7.01831

>  <CNNscore>  (103) 
0.6169590950

>  <CNNaffinity>  (103) 
4.3878297806

>  <CNN_VS>  (103) 
2.7071115971

>  <CNNaffinity_variance>  (103) 
0.1991743743

$$$$
104
     RDKit          3D

 43 45  0  0  0  0  0  0  0  0999 V2000
   20.9253   70.8988   -1.5748 P   0  0  2  0  0  0  0  0  0  0  0  0
   22.1770   70.5136   -0.6250 O   0  0  0  0  0  0  0  0  0  0  0  0
   19.9894   71.9241   -1.0053 O   0  0  0  0  0  0  0  0  0  0  0  0
   20.2621   69.4694   -1.9422 O   0  0  0  0  0  0  0  0  0  0  0  0
   19.6152   69.3262   -3.1947 C   0  0  0  0  0  0  0  0  0  0  0  0
   17.7976   70.5745   -4.1495 O   0  0  0  0  0  0  0  0  0  0  0  0
   15.9926   68.8865   -2.4515 O   0  0  0  0  0  0  0  0  0  0  0  0
   15.7637   67.7188   -4.9052 O   0  0  0  0  0  0  0  0  0  0  0  0
   17.2012   68.5260   -3.1182 C   0  0  1  0  0  0  0  0  0  0  0  0
   16.9633   68.4044   -4.6089 C   0  0  2  0  0  0  0  0  0  0  0  0
   18.1509   69.7151   -3.0437 C   0  0  1  0  0  0  0  0  0  0  0  0
   16.9270   69.8601   -5.0420 C   0  0  2  0  0  0  0  0  0  0  0  0
   15.3704   68.1424   -2.4857 H   0  0  0  0  0  0  0  0  0  0  0  0
   15.8365   66.7975   -4.6107 H   0  0  0  0  0  0  0  0  0  0  0  0
   15.5802   71.3904   -6.9972 O   0  0  0  0  0  0  0  0  0  0  0  0
   18.7910   70.4883  -10.1782 O   0  0  0  0  0  0  0  0  0  0  0  0
   17.3887   70.0424   -6.3892 N   0  0  0  0  0  0  0  0  0  0  0  0
   17.1801   70.9401   -8.5794 N   0  0  0  0  0  0  0  0  0  0  0  0
   16.6374   70.8294   -7.2929 C   0  0  0  0  0  0  0  0  0  0  0  0
   18.5745   69.4447   -6.8022 C   0  0  0  0  0  0  0  0  0  0  0  0
   19.0778   69.5590   -8.0330 C   0  0  0  0  0  0  0  0  0  0  0  0
   18.3542   70.3641   -9.0381 C   0  0  0  0  0  0  0  0  0  0  0  0
   16.6737   71.4833   -9.2262 H   0  0  0  0  0  0  0  0  0  0  0  0
   21.6392   71.3344   -2.9582 O   0  0  0  0  0  0  0  0  0  0  0  0
   22.7895   72.4291   -3.2602 P   0  0  2  0  0  0  0  0  0  0  0  0
   23.9594   71.5554   -3.9570 O   0  0  0  0  0  0  0  0  0  0  0  0
   23.2318   73.2059   -2.0540 O   0  0  0  0  0  0  0  0  0  0  0  0
   22.1895   73.3333   -4.4549 O   0  0  0  0  0  0  0  0  0  0  0  0
   20.5157   72.7613   -6.0323 O   0  0  0  0  0  0  0  0  0  0  0  0
   22.8510   75.2043   -8.4049 O   0  0  0  0  0  0  0  0  0  0  0  0
   20.2966   76.1417   -7.4860 O   0  0  0  0  0  0  0  0  0  0  0  0
   24.1015   73.4109   -6.5075 O   0  0  0  0  0  0  0  0  0  0  0  0
   22.2347   74.7720   -7.1888 C   0  0  1  0  0  0  0  0  0  0  0  0
   20.7180   74.7840   -7.3891 C   0  0  1  0  0  0  0  0  0  0  0  0
   22.7220   73.3632   -6.8556 C   0  0  2  0  0  0  0  0  0  0  0  0
   20.0003   74.0833   -6.2277 C   0  0  1  0  0  0  0  0  0  0  0  0
   21.9099   72.7386   -5.7196 C   0  0  1  0  0  0  0  0  0  0  0  0
   22.5462   76.0984   -8.6218 H   0  0  0  0  0  0  0  0  0  0  0  0
   20.7575   76.5728   -8.2228 H   0  0  0  0  0  0  0  0  0  0  0  0
   24.6047   73.8080   -7.2348 H   0  0  0  0  0  0  0  0  0  0  0  0
   18.2880   73.8642   -7.8796 O   0  0  0  0  0  0  0  0  0  0  0  0
   18.5010   73.9444   -6.4823 C   0  0  0  0  0  0  0  0  0  0  0  0
   17.3380   73.7751   -8.0567 H   0  0  0  0  0  0  0  0  0  0  0  0
 25 28  1  0
 25 24  1  0
 25 26  1  6
 25 27  2  0
  1  4  1  0
  1 24  1  0
  1  2  1  1
  1  3  2  0
  6 11  1  0
  6 12  1  0
 29 36  1  0
 29 37  1  0
  9  7  1  1
  7 13  1  0
 10  8  1  1
  8 14  1  0
 37 28  1  1
  4  5  1  0
 33 30  1  6
 30 38  1  0
 34 31  1  1
 31 39  1  0
 35 32  1  1
 32 40  1  0
 41 42  1  0
 41 43  1  0
 15 19  2  0
 16 22  2  0
 12 17  1  6
 17 19  1  0
 17 20  1  0
 18 19  1  0
 18 22  1  0
 18 23  1  0
  9 10  1  0
  9 11  1  0
 10 12  1  0
 11  5  1  6
 33 34  1  0
 33 35  1  0
 34 36  1  0
 35 37  1  0
 36 42  1  6
 20 21  2  0
 21 22  1  0
M  CHG  2   2  -1  26  -1
M  END
>  <COMPND>  (104) 
    8629 

>  <AUTHOR>  (104) 
    GENERATED BY OPEN BABEL 3.1.1

>  <MASTER>  (104) 
        0    0    0    0    0    0    0    0   58    0   58    0

>  <minimizedAffinity>  (104) 
-7.52507

>  <CNNscore>  (104) 
0.5141814947

>  <CNNaffinity>  (104) 
4.3468475342

>  <CNN_VS>  (104) 
2.2350685596

>  <CNNaffinity_variance>  (104) 
0.7775308490

$$$$
105
     RDKit          3D

 43 45  0  0  0  0  0  0  0  0999 V2000
   22.0225   71.7089   -3.4754 P   0  0  2  0  0  0  0  0  0  0  0  0
   23.2232   70.6544   -3.2231 O   0  0  0  0  0  0  0  0  0  0  0  0
   21.5895   72.4785   -2.2623 O   0  0  0  0  0  0  0  0  0  0  0  0
   20.8735   70.8246   -4.1937 O   0  0  0  0  0  0  0  0  0  0  0  0
   20.3525   69.7029   -3.5022 C   0  0  0  0  0  0  0  0  0  0  0  0
   18.3176   70.6992   -4.3025 O   0  0  0  0  0  0  0  0  0  0  0  0
   16.8994   68.9264   -2.3438 O   0  0  0  0  0  0  0  0  0  0  0  0
   16.5431   67.6085   -4.7044 O   0  0  0  0  0  0  0  0  0  0  0  0
   18.0633   68.6589   -3.1243 C   0  0  1  0  0  0  0  0  0  0  0  0
   17.6842   68.4315   -4.5728 C   0  0  2  0  0  0  0  0  0  0  0  0
   18.8784   69.9435   -3.2067 C   0  0  1  0  0  0  0  0  0  0  0  0
   17.4419   69.8494   -5.0614 C   0  0  2  0  0  0  0  0  0  0  0  0
   16.3631   68.1203   -2.2767 H   0  0  0  0  0  0  0  0  0  0  0  0
   16.7478   66.7175   -4.3804 H   0  0  0  0  0  0  0  0  0  0  0  0
   15.8386   71.3021   -6.8773 O   0  0  0  0  0  0  0  0  0  0  0  0
   18.6670   70.3785  -10.3970 O   0  0  0  0  0  0  0  0  0  0  0  0
   17.7358   70.0052   -6.4581 N   0  0  0  0  0  0  0  0  0  0  0  0
   17.2483   70.8411   -8.6283 N   0  0  0  0  0  0  0  0  0  0  0  0
   16.8651   70.7538   -7.2839 C   0  0  0  0  0  0  0  0  0  0  0  0
   18.8769   69.4196   -6.9956 C   0  0  0  0  0  0  0  0  0  0  0  0
   19.2275   69.5112   -8.2801 C   0  0  0  0  0  0  0  0  0  0  0  0
   18.3719   70.2758   -9.2103 C   0  0  0  0  0  0  0  0  0  0  0  0
   16.6566   71.3574   -9.2226 H   0  0  0  0  0  0  0  0  0  0  0  0
   22.5879   72.6210   -4.6843 O   0  0  0  0  0  0  0  0  0  0  0  0
   22.2219   74.1290   -5.1371 P   0  0  2  0  0  0  0  0  0  0  0  0
   22.8288   75.0332   -3.9406 O   0  0  0  0  0  0  0  0  0  0  0  0
   20.7618   74.3541   -5.4041 O   0  0  0  0  0  0  0  0  0  0  0  0
   23.1854   74.4220   -6.3984 O   0  0  0  0  0  0  0  0  0  0  0  0
   24.9365   75.9897   -6.7025 O   0  0  0  0  0  0  0  0  0  0  0  0
   23.2447   76.1519  -10.4658 O   0  0  0  0  0  0  0  0  0  0  0  0
   25.7796   74.8511  -10.1057 O   0  0  0  0  0  0  0  0  0  0  0  0
   21.5514   75.9065   -8.1308 O   0  0  0  0  0  0  0  0  0  0  0  0
   23.6519   75.5257   -9.2462 C   0  0  1  0  0  0  0  0  0  0  0  0
   25.1691   75.6731   -9.1148 C   0  0  1  0  0  0  0  0  0  0  0  0
   22.9425   76.2039   -8.0757 C   0  0  2  0  0  0  0  0  0  0  0  0
   25.6460   75.2655   -7.7143 C   0  0  1  0  0  0  0  0  0  0  0  0
   23.5256   75.7654   -6.7312 C   0  0  1  0  0  0  0  0  0  0  0  0
   23.6912   75.7257  -11.2131 H   0  0  0  0  0  0  0  0  0  0  0  0
   25.4697   75.1185  -10.9852 H   0  0  0  0  0  0  0  0  0  0  0  0
   21.1941   76.1891   -8.9866 H   0  0  0  0  0  0  0  0  0  0  0  0
   27.8783   74.5129   -8.1139 O   0  0  0  0  0  0  0  0  0  0  0  0
   27.1318   75.5532   -7.5098 C   0  0  0  0  0  0  0  0  0  0  0  0
   28.8259   74.6829   -7.9919 H   0  0  0  0  0  0  0  0  0  0  0  0
 25 28  1  0
 25 24  1  0
 25 26  1  1
 25 27  2  0
  1  4  1  0
  1 24  1  0
  1  2  1  1
  1  3  2  0
  6 11  1  0
  6 12  1  0
 29 36  1  0
 29 37  1  0
  9  7  1  1
  7 13  1  0
 10  8  1  1
  8 14  1  0
 37 28  1  6
  4  5  1  0
 33 30  1  6
 30 38  1  0
 34 31  1  6
 31 39  1  0
 35 32  1  1
 32 40  1  0
 41 42  1  0
 41 43  1  0
 15 19  2  0
 16 22  2  0
 12 17  1  6
 17 19  1  0
 17 20  1  0
 18 19  1  0
 18 22  1  0
 18 23  1  0
  9 10  1  0
  9 11  1  0
 10 12  1  0
 11  5  1  6
 33 34  1  0
 33 35  1  0
 34 36  1  0
 35 37  1  0
 36 42  1  6
 20 21  2  0
 21 22  1  0
M  CHG  2   2  -1  26  -1
M  END
>  <COMPND>  (105) 
    8629 

>  <AUTHOR>  (105) 
    GENERATED BY OPEN BABEL 3.1.1

>  <MASTER>  (105) 
        0    0    0    0    0    0    0    0   58    0   58    0

>  <minimizedAffinity>  (105) 
-7.51057

>  <CNNscore>  (105) 
0.5055731535

>  <CNNaffinity>  (105) 
4.4220609665

>  <CNN_VS>  (105) 
2.2356753349

>  <CNNaffinity_variance>  (105) 
0.2759359479

$$$$
106
     RDKit          3D

 43 45  0  0  0  0  0  0  0  0999 V2000
   21.9434   71.3720   -2.2748 P   0  0  2  0  0  0  0  0  0  0  0  0
   23.4340   71.3222   -2.9016 O   0  0  0  0  0  0  0  0  0  0  0  0
   21.7712   70.6191   -0.9884 O   0  0  0  0  0  0  0  0  0  0  0  0
   20.9924   70.9021   -3.4966 O   0  0  0  0  0  0  0  0  0  0  0  0
   20.3422   69.6466   -3.4031 C   0  0  0  0  0  0  0  0  0  0  0  0
   18.3041   70.6368   -4.2027 O   0  0  0  0  0  0  0  0  0  0  0  0
   16.8894   68.8337   -2.2693 O   0  0  0  0  0  0  0  0  0  0  0  0
   16.5536   67.5379   -4.6452 O   0  0  0  0  0  0  0  0  0  0  0  0
   18.0588   68.5826   -3.0469 C   0  0  1  0  0  0  0  0  0  0  0  0
   17.6882   68.3676   -4.4995 C   0  0  2  0  0  0  0  0  0  0  0  0
   18.8651   69.8737   -3.1121 C   0  0  1  0  0  0  0  0  0  0  0  0
   17.4380   69.7888   -4.9745 C   0  0  2  0  0  0  0  0  0  0  0  0
   16.3584   68.0232   -2.2132 H   0  0  0  0  0  0  0  0  0  0  0  0
   16.7631   66.6451   -4.3295 H   0  0  0  0  0  0  0  0  0  0  0  0
   15.8596   71.2907   -6.7720 O   0  0  0  0  0  0  0  0  0  0  0  0
   18.6831   70.3799  -10.2990 O   0  0  0  0  0  0  0  0  0  0  0  0
   17.7375   69.9612   -6.3681 N   0  0  0  0  0  0  0  0  0  0  0  0
   17.2669   70.8361   -8.5267 N   0  0  0  0  0  0  0  0  0  0  0  0
   16.8793   70.7342   -7.1845 C   0  0  0  0  0  0  0  0  0  0  0  0
   18.8715   69.3677   -6.9118 C   0  0  0  0  0  0  0  0  0  0  0  0
   19.2264   69.4735   -8.1940 C   0  0  0  0  0  0  0  0  0  0  0  0
   18.3837   70.2638   -9.1146 C   0  0  0  0  0  0  0  0  0  0  0  0
   16.6839   71.3695   -9.1145 H   0  0  0  0  0  0  0  0  0  0  0  0
   21.6453   72.9574   -2.1715 O   0  0  0  0  0  0  0  0  0  0  0  0
   22.6242   74.2028   -1.8492 P   0  0  2  0  0  0  0  0  0  0  0  0
   23.6981   73.5729   -0.8160 O   0  0  0  0  0  0  0  0  0  0  0  0
   21.9174   75.4250   -1.3390 O   0  0  0  0  0  0  0  0  0  0  0  0
   23.4565   74.4317   -3.2130 O   0  0  0  0  0  0  0  0  0  0  0  0
   22.4990   76.0157   -4.6932 O   0  0  0  0  0  0  0  0  0  0  0  0
   25.2339   74.2852   -7.2576 O   0  0  0  0  0  0  0  0  0  0  0  0
   25.7019   76.9398   -6.2667 O   0  0  0  0  0  0  0  0  0  0  0  0
   23.8064   72.6440   -5.3476 O   0  0  0  0  0  0  0  0  0  0  0  0
   24.7479   74.7627   -6.0002 C   0  0  1  0  0  0  0  0  0  0  0  0
   24.4573   76.2588   -6.1352 C   0  0  1  0  0  0  0  0  0  0  0  0
   23.4768   73.9990   -5.6337 C   0  0  2  0  0  0  0  0  0  0  0  0
   23.6860   76.7854   -4.9175 C   0  0  1  0  0  0  0  0  0  0  0  0
   22.7607   74.6339   -4.4403 C   0  0  1  0  0  0  0  0  0  0  0  0
   26.0413   74.7658   -7.4959 H   0  0  0  0  0  0  0  0  0  0  0  0
   26.1792   76.5976   -7.0389 H   0  0  0  0  0  0  0  0  0  0  0  0
   24.2588   72.2534   -6.1109 H   0  0  0  0  0  0  0  0  0  0  0  0
   23.0810   78.4836   -6.4856 O   0  0  0  0  0  0  0  0  0  0  0  0
   23.2483   78.2368   -5.1016 C   0  0  0  0  0  0  0  0  0  0  0  0
   22.8022   79.4036   -6.6179 H   0  0  0  0  0  0  0  0  0  0  0  0
 25 28  1  0
 25 24  1  0
 25 26  1  1
 25 27  2  0
  1  4  1  0
  1 24  1  0
  1  2  1  6
  1  3  2  0
  6 11  1  0
  6 12  1  0
 29 36  1  0
 29 37  1  0
  9  7  1  1
  7 13  1  0
 10  8  1  1
  8 14  1  0
 37 28  1  1
  4  5  1  0
 33 30  1  6
 30 38  1  0
 34 31  1  1
 31 39  1  0
 35 32  1  1
 32 40  1  0
 41 42  1  0
 41 43  1  0
 15 19  2  0
 16 22  2  0
 12 17  1  6
 17 19  1  0
 17 20  1  0
 18 19  1  0
 18 22  1  0
 18 23  1  0
  9 10  1  0
  9 11  1  0
 10 12  1  0
 11  5  1  6
 33 34  1  0
 33 35  1  0
 34 36  1  0
 35 37  1  0
 36 42  1  6
 20 21  2  0
 21 22  1  0
M  CHG  2   2  -1  26  -1
M  END
>  <COMPND>  (106) 
    8629 

>  <AUTHOR>  (106) 
    GENERATED BY OPEN BABEL 3.1.1

>  <MASTER>  (106) 
        0    0    0    0    0    0    0    0   58    0   58    0

>  <minimizedAffinity>  (106) 
-7.41437

>  <CNNscore>  (106) 
0.4914689362

>  <CNNaffinity>  (106) 
4.4249238968

>  <CNN_VS>  (106) 
2.1747126579

>  <CNNaffinity_variance>  (106) 
0.1939078867

$$$$
107
     RDKit          3D

 43 45  0  0  0  0  0  0  0  0999 V2000
   21.6366   75.6022   -4.1381 P   0  0  2  0  0  0  0  0  0  0  0  0
   23.0656   75.6850   -4.8921 O   0  0  0  0  0  0  0  0  0  0  0  0
   20.8328   76.8690   -4.1625 O   0  0  0  0  0  0  0  0  0  0  0  0
   22.0049   75.0320   -2.6694 O   0  0  0  0  0  0  0  0  0  0  0  0
   21.0815   74.1696   -2.0278 C   0  0  0  0  0  0  0  0  0  0  0  0
   21.0291   71.9334   -1.1500 O   0  0  0  0  0  0  0  0  0  0  0  0
   24.0101   72.1557   -0.9161 O   0  0  0  0  0  0  0  0  0  0  0  0
   23.7004   70.6873   -3.1931 O   0  0  0  0  0  0  0  0  0  0  0  0
   23.1422   72.6814   -1.9189 C   0  0  1  0  0  0  0  0  0  0  0  0
   22.6602   71.5726   -2.8310 C   0  0  2  0  0  0  0  0  0  0  0  0
   21.8504   73.1183   -1.2394 C   0  0  1  0  0  0  0  0  0  0  0  0
   21.5942   70.9048   -1.9792 C   0  0  2  0  0  0  0  0  0  0  0  0
   24.8422   71.8702   -1.3262 H   0  0  0  0  0  0  0  0  0  0  0  0
   24.3531   71.1589   -3.7338 H   0  0  0  0  0  0  0  0  0  0  0  0
   19.5651   69.2298   -0.9520 O   0  0  0  0  0  0  0  0  0  0  0  0
   17.6404   68.7060   -5.1068 O   0  0  0  0  0  0  0  0  0  0  0  0
   20.5498   70.3172   -2.7700 N   0  0  0  0  0  0  0  0  0  0  0  0
   18.6083   68.9705   -3.0216 N   0  0  0  0  0  0  0  0  0  0  0  0
   19.5801   69.4900   -2.1569 C   0  0  0  0  0  0  0  0  0  0  0  0
   20.4942   70.5633   -4.1375 C   0  0  0  0  0  0  0  0  0  0  0  0
   19.5617   70.0592   -4.9485 C   0  0  0  0  0  0  0  0  0  0  0  0
   18.5115   69.1849   -4.3874 C   0  0  0  0  0  0  0  0  0  0  0  0
   17.9226   68.3911   -2.6168 H   0  0  0  0  0  0  0  0  0  0  0  0
   20.9226   74.3387   -4.8499 O   0  0  0  0  0  0  0  0  0  0  0  0
   20.3565   74.1466   -6.3517 P   0  0  2  0  0  0  0  0  0  0  0  0
   21.0717   72.7822   -6.8461 O   0  0  0  0  0  0  0  0  0  0  0  0
   20.5852   75.3267   -7.2512 O   0  0  0  0  0  0  0  0  0  0  0  0
   18.8055   73.7458   -6.1555 O   0  0  0  0  0  0  0  0  0  0  0  0
   18.0600   72.8893   -8.2357 O   0  0  0  0  0  0  0  0  0  0  0  0
   14.5234   72.6491   -6.1178 O   0  0  0  0  0  0  0  0  0  0  0  0
   15.9658   70.2465   -6.7462 O   0  0  0  0  0  0  0  0  0  0  0  0
   16.2882   74.9106   -5.7297 O   0  0  0  0  0  0  0  0  0  0  0  0
   15.9414   72.5955   -6.2964 C   0  0  1  0  0  0  0  0  0  0  0  0
   16.2537   71.5132   -7.3317 C   0  0  1  0  0  0  0  0  0  0  0  0
   16.4357   73.9584   -6.7775 C   0  0  2  0  0  0  0  0  0  0  0  0
   17.7221   71.5764   -7.7734 C   0  0  1  0  0  0  0  0  0  0  0  0
   17.8929   73.8999   -7.2394 C   0  0  1  0  0  0  0  0  0  0  0  0
   14.2032   71.7869   -5.8119 H   0  0  0  0  0  0  0  0  0  0  0  0
   15.0358   70.2199   -6.4712 H   0  0  0  0  0  0  0  0  0  0  0  0
   15.3614   74.9385   -5.4464 H   0  0  0  0  0  0  0  0  0  0  0  0
   18.3741   71.3650  -10.0623 O   0  0  0  0  0  0  0  0  0  0  0  0
   18.0168   70.6105   -8.9189 C   0  0  0  0  0  0  0  0  0  0  0  0
   18.5647   70.7633  -10.7994 H   0  0  0  0  0  0  0  0  0  0  0  0
 25 28  1  0
 25 24  1  0
 25 26  1  6
 25 27  2  0
  1  4  1  0
  1 24  1  0
  1  2  1  6
  1  3  2  0
  6 11  1  0
  6 12  1  0
 29 36  1  0
 29 37  1  0
  9  7  1  1
  7 13  1  0
 10  8  1  1
  8 14  1  0
 37 28  1  1
  4  5  1  0
 33 30  1  6
 30 38  1  0
 34 31  1  1
 31 39  1  0
 35 32  1  1
 32 40  1  0
 41 42  1  0
 41 43  1  0
 15 19  2  0
 16 22  2  0
 12 17  1  6
 17 19  1  0
 17 20  1  0
 18 19  1  0
 18 22  1  0
 18 23  1  0
  9 10  1  0
  9 11  1  0
 10 12  1  0
 11  5  1  6
 33 34  1  0
 33 35  1  0
 34 36  1  0
 35 37  1  0
 36 42  1  6
 20 21  2  0
 21 22  1  0
M  CHG  2   2  -1  26  -1
M  END
>  <COMPND>  (107) 
    8629 

>  <AUTHOR>  (107) 
    GENERATED BY OPEN BABEL 3.1.1

>  <MASTER>  (107) 
        0    0    0    0    0    0    0    0   58    0   58    0

>  <minimizedAffinity>  (107) 
-6.77470

>  <CNNscore>  (107) 
0.4730252922

>  <CNNaffinity>  (107) 
4.0892586708

>  <CNN_VS>  (107) 
1.9343228340

>  <CNNaffinity_variance>  (107) 
0.4503675103

$$$$
108
     RDKit          3D

 43 45  0  0  0  0  0  0  0  0999 V2000
   17.7762   70.8109   -2.2027 P   0  0  2  0  0  0  0  0  0  0  0  0
   16.2043   71.1167   -2.4335 O   0  0  0  0  0  0  0  0  0  0  0  0
   18.0699   69.6456   -1.3043 O   0  0  0  0  0  0  0  0  0  0  0  0
   18.3832   72.2339   -1.7290 O   0  0  0  0  0  0  0  0  0  0  0  0
   17.6461   73.0071   -0.7980 C   0  0  0  0  0  0  0  0  0  0  0  0
   19.7876   72.6216    0.2214 O   0  0  0  0  0  0  0  0  0  0  0  0
   19.1755   74.9853    1.9618 O   0  0  0  0  0  0  0  0  0  0  0  0
   20.8612   76.0414    0.0964 O   0  0  0  0  0  0  0  0  0  0  0  0
   18.8504   74.7668    0.5900 C   0  0  1  0  0  0  0  0  0  0  0  0
   20.0850   74.9201   -0.2738 C   0  0  2  0  0  0  0  0  0  0  0  0
   18.5216   73.2894    0.4153 C   0  0  1  0  0  0  0  0  0  0  0  0
   20.8050   73.6046   -0.0307 C   0  0  2  0  0  0  0  0  0  0  0  0
   19.3889   75.9223    2.0980 H   0  0  0  0  0  0  0  0  0  0  0  0
   20.3599   76.8534   -0.0773 H   0  0  0  0  0  0  0  0  0  0  0  0
   22.9726   71.7984    0.1000 O   0  0  0  0  0  0  0  0  0  0  0  0
   23.7228   72.0853   -4.4383 O   0  0  0  0  0  0  0  0  0  0  0  0
   21.5842   73.1894   -1.1628 N   0  0  0  0  0  0  0  0  0  0  0  0
   23.3443   71.9426   -2.1599 N   0  0  0  0  0  0  0  0  0  0  0  0
   22.6525   72.2789   -0.9892 C   0  0  0  0  0  0  0  0  0  0  0  0
   21.2862   73.6837   -2.4280 C   0  0  0  0  0  0  0  0  0  0  0  0
   21.9564   73.3541   -3.5341 C   0  0  0  0  0  0  0  0  0  0  0  0
   23.0870   72.4081   -3.4397 C   0  0  0  0  0  0  0  0  0  0  0  0
   24.0928   71.3100   -2.0632 H   0  0  0  0  0  0  0  0  0  0  0  0
   18.3417   70.6582   -3.7093 O   0  0  0  0  0  0  0  0  0  0  0  0
   19.4563   69.6649   -4.3292 P   0  0  2  0  0  0  0  0  0  0  0  0
   18.7565   68.2100   -4.2237 O   0  0  0  0  0  0  0  0  0  0  0  0
   20.7993   69.7558   -3.6646 O   0  0  0  0  0  0  0  0  0  0  0  0
   19.4675   69.9983   -5.9084 O   0  0  0  0  0  0  0  0  0  0  0  0
   17.1863   70.1748   -6.5261 O   0  0  0  0  0  0  0  0  0  0  0  0
   18.9234   70.9073  -10.1999 O   0  0  0  0  0  0  0  0  0  0  0  0
   17.6956   73.0653   -8.7564 O   0  0  0  0  0  0  0  0  0  0  0  0
   20.0704   68.9246   -8.4300 O   0  0  0  0  0  0  0  0  0  0  0  0
   18.8213   70.9550   -8.7742 C   0  0  1  0  0  0  0  0  0  0  0  0
   17.5314   71.6929   -8.4102 C   0  0  1  0  0  0  0  0  0  0  0  0
   18.7975   69.5289   -8.2275 C   0  0  2  0  0  0  0  0  0  0  0  0
   17.2164   71.5531   -6.9148 C   0  0  1  0  0  0  0  0  0  0  0  0
   18.4264   69.4989   -6.7437 C   0  0  1  0  0  0  0  0  0  0  0  0
   18.9395   71.8097  -10.5534 H   0  0  0  0  0  0  0  0  0  0  0  0
   17.8945   73.1396   -9.7031 H   0  0  0  0  0  0  0  0  0  0  0  0
   20.2937   68.9495   -9.3731 H   0  0  0  0  0  0  0  0  0  0  0  0
   15.4410   71.6087   -5.3168 O   0  0  0  0  0  0  0  0  0  0  0  0
   15.8550   72.1467   -6.5591 C   0  0  0  0  0  0  0  0  0  0  0  0
   14.5760   71.9778   -5.0775 H   0  0  0  0  0  0  0  0  0  0  0  0
 25 28  1  0
 25 24  1  0
 25 26  1  6
 25 27  2  0
  1  4  1  0
  1 24  1  0
  1  2  1  6
  1  3  2  0
  6 11  1  0
  6 12  1  0
 29 36  1  0
 29 37  1  0
  9  7  1  1
  7 13  1  0
 10  8  1  1
  8 14  1  0
 37 28  1  1
  4  5  1  0
 33 30  1  6
 30 38  1  0
 34 31  1  1
 31 39  1  0
 35 32  1  1
 32 40  1  0
 41 42  1  0
 41 43  1  0
 15 19  2  0
 16 22  2  0
 12 17  1  6
 17 19  1  0
 17 20  1  0
 18 19  1  0
 18 22  1  0
 18 23  1  0
  9 10  1  0
  9 11  1  0
 10 12  1  0
 11  5  1  6
 33 34  1  0
 33 35  1  0
 34 36  1  0
 35 37  1  0
 36 42  1  6
 20 21  2  0
 21 22  1  0
M  CHG  2   2  -1  26  -1
M  END
>  <COMPND>  (108) 
    8629 

>  <AUTHOR>  (108) 
    GENERATED BY OPEN BABEL 3.1.1

>  <MASTER>  (108) 
        0    0    0    0    0    0    0    0   58    0   58    0

>  <minimizedAffinity>  (108) 
-8.08132

>  <CNNscore>  (108) 
0.4569835067

>  <CNNaffinity>  (108) 
3.9854168892

>  <CNN_VS>  (108) 
1.8212697506

>  <CNNaffinity_variance>  (108) 
0.6591628194

$$$$
109
     RDKit          3D

 43 45  0  0  0  0  0  0  0  0999 V2000
   18.6490   69.1524   -4.1409 P   0  0  2  0  0  0  0  0  0  0  0  0
   19.5942   68.0930   -3.3651 O   0  0  0  0  0  0  0  0  0  0  0  0
   17.1878   68.8113   -4.1480 O   0  0  0  0  0  0  0  0  0  0  0  0
   19.3431   69.3001   -5.5949 O   0  0  0  0  0  0  0  0  0  0  0  0
   19.1222   70.4900   -6.3318 C   0  0  0  0  0  0  0  0  0  0  0  0
   16.9095   70.3426   -7.2570 O   0  0  0  0  0  0  0  0  0  0  0  0
   18.2325   70.4051   -9.9471 O   0  0  0  0  0  0  0  0  0  0  0  0
   17.3525   72.9699   -9.6577 O   0  0  0  0  0  0  0  0  0  0  0  0
   18.5940   71.0879   -8.7478 C   0  0  1  0  0  0  0  0  0  0  0  0
   17.6382   72.2332   -8.4862 C   0  0  2  0  0  0  0  0  0  0  0  0
   18.3067   70.1595   -7.5743 C   0  0  1  0  0  0  0  0  0  0  0  0
   16.4200   71.5084   -7.9397 C   0  0  2  0  0  0  0  0  0  0  0  0
   18.4074   70.9782  -10.7105 H   0  0  0  0  0  0  0  0  0  0  0  0
   18.1586   73.4125   -9.9662 H   0  0  0  0  0  0  0  0  0  0  0  0
   14.3481   73.2820   -8.6742 O   0  0  0  0  0  0  0  0  0  0  0  0
   13.6289   74.5437   -4.3002 O   0  0  0  0  0  0  0  0  0  0  0  0
   15.6741   72.3126   -7.0132 N   0  0  0  0  0  0  0  0  0  0  0  0
   13.9916   73.9087   -6.4957 N   0  0  0  0  0  0  0  0  0  0  0  0
   14.6544   73.1715   -7.4853 C   0  0  0  0  0  0  0  0  0  0  0  0
   15.9563   72.2446   -5.6532 C   0  0  0  0  0  0  0  0  0  0  0  0
   15.3158   72.9551   -4.7225 C   0  0  0  0  0  0  0  0  0  0  0  0
   14.2365   73.8767   -5.1320 C   0  0  0  0  0  0  0  0  0  0  0  0
   13.2775   74.5141   -6.8012 H   0  0  0  0  0  0  0  0  0  0  0  0
   19.0090   70.5549   -3.4223 O   0  0  0  0  0  0  0  0  0  0  0  0
   18.5139   71.1865   -2.0191 P   0  0  2  0  0  0  0  0  0  0  0  0
   18.7243   69.9723   -0.9708 O   0  0  0  0  0  0  0  0  0  0  0  0
   17.1193   71.7415   -2.0521 O   0  0  0  0  0  0  0  0  0  0  0  0
   19.6528   72.2622   -1.6309 O   0  0  0  0  0  0  0  0  0  0  0  0
   21.8231   71.3101   -1.6265 O   0  0  0  0  0  0  0  0  0  0  0  0
   22.6934   74.9443    0.1302 O   0  0  0  0  0  0  0  0  0  0  0  0
   23.5315   74.4375   -2.5696 O   0  0  0  0  0  0  0  0  0  0  0  0
   20.2235   73.5813    0.7794 O   0  0  0  0  0  0  0  0  0  0  0  0
   22.0118   74.0583   -0.7620 C   0  0  1  0  0  0  0  0  0  0  0  0
   23.0477   73.4243   -1.6924 C   0  0  1  0  0  0  0  0  0  0  0  0
   21.2928   72.9850    0.0531 C   0  0  2  0  0  0  0  0  0  0  0  0
   22.4364   72.2688   -2.4963 C   0  0  1  0  0  0  0  0  0  0  0  0
   20.7656   71.8583   -0.8372 C   0  0  1  0  0  0  0  0  0  0  0  0
   23.1516   75.6286   -0.3810 H   0  0  0  0  0  0  0  0  0  0  0  0
   23.9144   75.1614   -2.0494 H   0  0  0  0  0  0  0  0  0  0  0  0
   20.5703   74.2927    1.3393 H   0  0  0  0  0  0  0  0  0  0  0  0
   23.6661   72.1983   -4.5437 O   0  0  0  0  0  0  0  0  0  0  0  0
   23.4881   71.5212   -3.3132 C   0  0  0  0  0  0  0  0  0  0  0  0
   24.3330   71.7339   -5.0741 H   0  0  0  0  0  0  0  0  0  0  0  0
 25 28  1  0
 25 24  1  0
 25 26  1  1
 25 27  2  0
  1  4  1  0
  1 24  1  0
  1  2  1  1
  1  3  2  0
  6 11  1  0
  6 12  1  0
 29 36  1  0
 29 37  1  0
  9  7  1  6
  7 13  1  0
 10  8  1  6
  8 14  1  0
 37 28  1  6
  4  5  1  0
 33 30  1  1
 30 38  1  0
 34 31  1  6
 31 39  1  0
 35 32  1  6
 32 40  1  0
 41 42  1  0
 41 43  1  0
 15 19  2  0
 16 22  2  0
 12 17  1  1
 17 19  1  0
 17 20  1  0
 18 19  1  0
 18 22  1  0
 18 23  1  0
  9 10  1  0
  9 11  1  0
 10 12  1  0
 11  5  1  1
 33 34  1  0
 33 35  1  0
 34 36  1  0
 35 37  1  0
 36 42  1  1
 20 21  2  0
 21 22  1  0
M  CHG  2   2  -1  26  -1
M  END
>  <COMPND>  (109) 
    8629 

>  <AUTHOR>  (109) 
    GENERATED BY OPEN BABEL 3.1.1

>  <MASTER>  (109) 
        0    0    0    0    0    0    0    0   58    0   58    0

>  <minimizedAffinity>  (109) 
-7.91099

>  <CNNscore>  (109) 
0.4056497812

>  <CNNaffinity>  (109) 
4.1531486511

>  <CNN_VS>  (109) 
1.6847238541

>  <CNNaffinity_variance>  (109) 
0.2170836926

$$$$
110
     RDKit          3D

 43 45  0  0  0  0  0  0  0  0999 V2000
   22.8403   73.6719   -6.8360 P   0  0  2  0  0  0  0  0  0  0  0  0
   22.4381   74.9511   -7.7410 O   0  0  0  0  0  0  0  0  0  0  0  0
   24.2980   73.3165   -6.8531 O   0  0  0  0  0  0  0  0  0  0  0  0
   21.8282   72.5112   -7.3326 O   0  0  0  0  0  0  0  0  0  0  0  0
   20.5741   72.3853   -6.6853 C   0  0  0  0  0  0  0  0  0  0  0  0
   18.7570   70.8721   -6.2583 O   0  0  0  0  0  0  0  0  0  0  0  0
   19.9586   69.1267   -8.3798 O   0  0  0  0  0  0  0  0  0  0  0  0
   17.9127   70.3497   -9.7046 O   0  0  0  0  0  0  0  0  0  0  0  0
   19.8953   70.5503   -8.3117 C   0  0  1  0  0  0  0  0  0  0  0  0
   18.4893   71.0289   -8.6078 C   0  0  2  0  0  0  0  0  0  0  0  0
   20.0699   70.9586   -6.8542 C   0  0  1  0  0  0  0  0  0  0  0  0
   17.7752   70.7379   -7.2988 C   0  0  2  0  0  0  0  0  0  0  0  0
   19.8499   68.8421   -9.3013 H   0  0  0  0  0  0  0  0  0  0  0  0
   18.4019   70.5672  -10.5133 H   0  0  0  0  0  0  0  0  0  0  0  0
   16.0083   70.5587   -5.1025 O   0  0  0  0  0  0  0  0  0  0  0  0
   13.6848   74.3107   -6.4310 O   0  0  0  0  0  0  0  0  0  0  0  0
   16.6996   71.6548   -7.0461 N   0  0  0  0  0  0  0  0  0  0  0  0
   14.8529   72.4272   -5.7657 N   0  0  0  0  0  0  0  0  0  0  0  0
   15.8695   71.4752   -5.9152 C   0  0  0  0  0  0  0  0  0  0  0  0
   16.4770   72.7181   -7.9144 C   0  0  0  0  0  0  0  0  0  0  0  0
   15.5024   73.6164   -7.7584 C   0  0  0  0  0  0  0  0  0  0  0  0
   14.5905   73.5006   -6.6021 C   0  0  0  0  0  0  0  0  0  0  0  0
   14.2619   72.3220   -4.9851 H   0  0  0  0  0  0  0  0  0  0  0  0
   22.2597   74.0609   -5.3784 O   0  0  0  0  0  0  0  0  0  0  0  0
   22.6303   75.2750   -4.3776 P   0  0  2  0  0  0  0  0  0  0  0  0
   21.4293   76.3324   -4.6164 O   0  0  0  0  0  0  0  0  0  0  0  0
   24.0050   75.8429   -4.5817 O   0  0  0  0  0  0  0  0  0  0  0  0
   22.3639   74.6824   -2.9002 O   0  0  0  0  0  0  0  0  0  0  0  0
   22.4187   72.3385   -2.5541 O   0  0  0  0  0  0  0  0  0  0  0  0
   20.2134   73.4431    0.7576 O   0  0  0  0  0  0  0  0  0  0  0  0
   22.9321   72.5785    1.0884 O   0  0  0  0  0  0  0  0  0  0  0  0
   19.7979   74.7923   -1.7695 O   0  0  0  0  0  0  0  0  0  0  0  0
   21.2235   73.5917   -0.2439 C   0  0  1  0  0  0  0  0  0  0  0  0
   22.1967   72.4175   -0.1214 C   0  0  1  0  0  0  0  0  0  0  0  0
   20.5631   73.6011   -1.6213 C   0  0  2  0  0  0  0  0  0  0  0  0
   23.1500   72.3605   -1.3227 C   0  0  1  0  0  0  0  0  0  0  0  0
   21.5965   73.4917   -2.7439 C   0  0  1  0  0  0  0  0  0  0  0  0
   20.6261   73.4368    1.6347 H   0  0  0  0  0  0  0  0  0  0  0  0
   22.3185   72.6136    1.8390 H   0  0  0  0  0  0  0  0  0  0  0  0
   19.1472   74.8498   -1.0531 H   0  0  0  0  0  0  0  0  0  0  0  0
   24.1578   70.6301   -2.6262 O   0  0  0  0  0  0  0  0  0  0  0  0
   24.0239   71.1083   -1.3004 C   0  0  0  0  0  0  0  0  0  0  0  0
   24.7119   69.8335   -2.6275 H   0  0  0  0  0  0  0  0  0  0  0  0
 25 28  1  0
 25 24  1  0
 25 26  1  6
 25 27  2  0
  1  4  1  0
  1 24  1  0
  1  2  1  6
  1  3  2  0
  6 11  1  0
  6 12  1  0
 29 36  1  0
 29 37  1  0
  9  7  1  1
  7 13  1  0
 10  8  1  6
  8 14  1  0
 37 28  1  1
  4  5  1  0
 33 30  1  1
 30 38  1  0
 34 31  1  1
 31 39  1  0
 35 32  1  6
 32 40  1  0
 41 42  1  0
 41 43  1  0
 15 19  2  0
 16 22  2  0
 12 17  1  1
 17 19  1  0
 17 20  1  0
 18 19  1  0
 18 22  1  0
 18 23  1  0
  9 10  1  0
  9 11  1  0
 10 12  1  0
 11  5  1  6
 33 34  1  0
 33 35  1  0
 34 36  1  0
 35 37  1  0
 36 42  1  1
 20 21  2  0
 21 22  1  0
M  CHG  2   2  -1  26  -1
M  END
>  <COMPND>  (110) 
    8629 

>  <AUTHOR>  (110) 
    GENERATED BY OPEN BABEL 3.1.1

>  <MASTER>  (110) 
        0    0    0    0    0    0    0    0   58    0   58    0

>  <minimizedAffinity>  (110) 
-7.47908

>  <CNNscore>  (110) 
0.3699462116

>  <CNNaffinity>  (110) 
4.0485253334

>  <CNN_VS>  (110) 
1.4977365732

>  <CNNaffinity_variance>  (110) 
0.4528254569

$$$$
111
     RDKit          3D

 43 45  0  0  0  0  0  0  0  0999 V2000
   22.3086   73.3162   -6.9233 P   0  0  2  0  0  0  0  0  0  0  0  0
   21.6652   74.7226   -7.3981 O   0  0  0  0  0  0  0  0  0  0  0  0
   23.7672   73.1496   -7.2335 O   0  0  0  0  0  0  0  0  0  0  0  0
   21.3230   72.2030   -7.5616 O   0  0  0  0  0  0  0  0  0  0  0  0
   19.9980   72.1104   -7.0678 C   0  0  0  0  0  0  0  0  0  0  0  0
   18.7762   70.0859   -6.6409 O   0  0  0  0  0  0  0  0  0  0  0  0
   17.9254   70.2148   -9.5132 O   0  0  0  0  0  0  0  0  0  0  0  0
   15.7345   71.1711   -8.2008 O   0  0  0  0  0  0  0  0  0  0  0  0
   18.1329   71.2783   -8.5851 C   0  0  1  0  0  0  0  0  0  0  0  0
   16.9963   71.3333   -7.5857 C   0  0  2  0  0  0  0  0  0  0  0  0
   19.3162   70.9051   -7.7008 C   0  0  1  0  0  0  0  0  0  0  0  0
   17.3428   70.1867   -6.6511 C   0  0  2  0  0  0  0  0  0  0  0  0
   17.1746   70.4305  -10.0892 H   0  0  0  0  0  0  0  0  0  0  0  0
   15.5602   71.9254   -8.7851 H   0  0  0  0  0  0  0  0  0  0  0  0
   16.4152   68.1596   -4.9167 O   0  0  0  0  0  0  0  0  0  0  0  0
   15.5974   71.1770   -1.5303 O   0  0  0  0  0  0  0  0  0  0  0  0
   16.8818   70.4144   -5.3105 N   0  0  0  0  0  0  0  0  0  0  0  0
   16.0089   69.6636   -3.2319 N   0  0  0  0  0  0  0  0  0  0  0  0
   16.4358   69.3275   -4.5230 C   0  0  0  0  0  0  0  0  0  0  0  0
   16.8754   71.7037   -4.7895 C   0  0  0  0  0  0  0  0  0  0  0  0
   16.4640   72.0077   -3.5568 C   0  0  0  0  0  0  0  0  0  0  0  0
   15.9823   70.9298   -2.6690 C   0  0  0  0  0  0  0  0  0  0  0  0
   15.6935   68.9227   -2.6651 H   0  0  0  0  0  0  0  0  0  0  0  0
   21.9453   73.2634   -5.3491 O   0  0  0  0  0  0  0  0  0  0  0  0
   22.8691   72.9687   -4.0558 P   0  0  2  0  0  0  0  0  0  0  0  0
   23.6154   74.3818   -3.8032 O   0  0  0  0  0  0  0  0  0  0  0  0
   23.7961   71.7986   -4.2153 O   0  0  0  0  0  0  0  0  0  0  0  0
   21.8264   72.8339   -2.8312 O   0  0  0  0  0  0  0  0  0  0  0  0
   20.1473   71.4124   -3.7124 O   0  0  0  0  0  0  0  0  0  0  0  0
   18.7085   71.8263    0.1359 O   0  0  0  0  0  0  0  0  0  0  0  0
   19.8817   69.3348   -0.6789 O   0  0  0  0  0  0  0  0  0  0  0  0
   19.9143   74.0901   -1.2062 O   0  0  0  0  0  0  0  0  0  0  0  0
   19.7152   71.7129   -0.8736 C   0  0  1  0  0  0  0  0  0  0  0  0
   19.5286   70.3732   -1.5885 C   0  0  1  0  0  0  0  0  0  0  0  0
   19.5686   72.8723   -1.8573 C   0  0  2  0  0  0  0  0  0  0  0  0
   20.3956   70.2942   -2.8523 C   0  0  1  0  0  0  0  0  0  0  0  0
   20.4365   72.6711   -3.1008 C   0  0  1  0  0  0  0  0  0  0  0  0
   18.7963   71.0934    0.7641 H   0  0  0  0  0  0  0  0  0  0  0  0
   19.3273   69.3963    0.1149 H   0  0  0  0  0  0  0  0  0  0  0  0
   19.3577   74.2060   -0.4208 H   0  0  0  0  0  0  0  0  0  0  0  0
   18.9351   68.4276   -3.1547 O   0  0  0  0  0  0  0  0  0  0  0  0
   20.1082   69.0337   -3.6651 C   0  0  0  0  0  0  0  0  0  0  0  0
   18.7397   67.6242   -3.6627 H   0  0  0  0  0  0  0  0  0  0  0  0
 25 28  1  0
 25 24  1  0
 25 26  1  1
 25 27  2  0
  1  4  1  0
  1 24  1  0
  1  2  1  6
  1  3  2  0
  6 11  1  0
  6 12  1  0
 29 36  1  0
 29 37  1  0
  9  7  1  6
  7 13  1  0
 10  8  1  6
  8 14  1  0
 37 28  1  1
  4  5  1  0
 33 30  1  1
 30 38  1  0
 34 31  1  1
 31 39  1  0
 35 32  1  1
 32 40  1  0
 41 42  1  0
 41 43  1  0
 15 19  2  0
 16 22  2  0
 12 17  1  1
 17 19  1  0
 17 20  1  0
 18 19  1  0
 18 22  1  0
 18 23  1  0
  9 10  1  0
  9 11  1  0
 10 12  1  0
 11  5  1  1
 33 34  1  0
 33 35  1  0
 34 36  1  0
 35 37  1  0
 36 42  1  6
 20 21  2  0
 21 22  1  0
M  CHG  2   2  -1  26  -1
M  END
>  <COMPND>  (111) 
    8629 

>  <AUTHOR>  (111) 
    GENERATED BY OPEN BABEL 3.1.1

>  <MASTER>  (111) 
        0    0    0    0    0    0    0    0   58    0   58    0

>  <minimizedAffinity>  (111) 
-7.52653

>  <CNNscore>  (111) 
0.3693333268

>  <CNNaffinity>  (111) 
3.9094333649

>  <CNN_VS>  (111) 
1.4438840151

>  <CNNaffinity_variance>  (111) 
1.0058416128

$$$$
112
     RDKit          3D

 43 45  0  0  0  0  0  0  0  0999 V2000
   22.7264   71.3566   -1.8584 P   0  0  2  0  0  0  0  0  0  0  0  0
   24.0304   70.6782   -2.5342 O   0  0  0  0  0  0  0  0  0  0  0  0
   22.1816   70.6304   -0.6637 O   0  0  0  0  0  0  0  0  0  0  0  0
   21.7004   71.5431   -3.0954 O   0  0  0  0  0  0  0  0  0  0  0  0
   20.9896   70.4092   -3.5612 C   0  0  0  0  0  0  0  0  0  0  0  0
   18.7490   71.0628   -4.1325 O   0  0  0  0  0  0  0  0  0  0  0  0
   17.8616   69.3254   -1.8554 O   0  0  0  0  0  0  0  0  0  0  0  0
   17.3758   67.7513   -4.0286 O   0  0  0  0  0  0  0  0  0  0  0  0
   18.9360   69.1304   -2.7736 C   0  0  1  0  0  0  0  0  0  0  0  0
   18.4010   68.7185   -4.1292 C   0  0  2  0  0  0  0  0  0  0  0  0
   19.5495   70.4922   -3.0741 C   0  0  1  0  0  0  0  0  0  0  0  0
   17.9039   70.0414   -4.6869 C   0  0  2  0  0  0  0  0  0  0  0  0
   17.4543   68.4693   -1.6481 H   0  0  0  0  0  0  0  0  0  0  0  0
   17.7418   66.9282   -3.6690 H   0  0  0  0  0  0  0  0  0  0  0  0
   16.0000   71.3090   -6.3441 O   0  0  0  0  0  0  0  0  0  0  0  0
   18.3135   70.1890  -10.1696 O   0  0  0  0  0  0  0  0  0  0  0  0
   17.9841   70.0966   -6.1194 N   0  0  0  0  0  0  0  0  0  0  0  0
   17.1536   70.7504   -8.2475 N   0  0  0  0  0  0  0  0  0  0  0  0
   16.9751   70.7571   -6.8583 C   0  0  0  0  0  0  0  0  0  0  0  0
   19.0546   69.5004   -6.7770 C   0  0  0  0  0  0  0  0  0  0  0  0
   19.2095   69.5017   -8.1026 C   0  0  0  0  0  0  0  0  0  0  0  0
   18.1995   70.1706   -8.9479 C   0  0  0  0  0  0  0  0  0  0  0  0
   16.4628   71.2043   -8.7829 H   0  0  0  0  0  0  0  0  0  0  0  0
   23.2159   72.8682   -1.5612 O   0  0  0  0  0  0  0  0  0  0  0  0
   22.8238   74.2689   -2.2663 P   0  0  2  0  0  0  0  0  0  0  0  0
   23.9932   75.2725   -1.7736 O   0  0  0  0  0  0  0  0  0  0  0  0
   21.4321   74.7428   -1.9619 O   0  0  0  0  0  0  0  0  0  0  0  0
   23.1223   74.0342   -3.8350 O   0  0  0  0  0  0  0  0  0  0  0  0
   23.4573   75.3823   -5.7552 O   0  0  0  0  0  0  0  0  0  0  0  0
   20.7139   72.7085   -7.2966 O   0  0  0  0  0  0  0  0  0  0  0  0
   23.4613   72.5534   -8.1187 O   0  0  0  0  0  0  0  0  0  0  0  0
   20.4423   73.6461   -4.5714 O   0  0  0  0  0  0  0  0  0  0  0  0
   21.8135   73.1224   -6.4811 C   0  0  1  0  0  0  0  0  0  0  0  0
   22.9166   73.6551   -7.3978 C   0  0  1  0  0  0  0  0  0  0  0  0
   21.3402   74.2116   -5.5204 C   0  0  2  0  0  0  0  0  0  0  0  0
   24.0145   74.3611   -6.5909 C   0  0  1  0  0  0  0  0  0  0  0  0
   22.5140   74.8829   -4.8051 C   0  0  1  0  0  0  0  0  0  0  0  0
   21.0076   72.0166   -7.9086 H   0  0  0  0  0  0  0  0  0  0  0  0
   22.7577   72.1160   -8.6235 H   0  0  0  0  0  0  0  0  0  0  0  0
   19.7036   73.2246   -5.0367 H   0  0  0  0  0  0  0  0  0  0  0  0
   26.3087   74.4487   -7.2526 O   0  0  0  0  0  0  0  0  0  0  0  0
   25.0437   75.0365   -7.4946 C   0  0  0  0  0  0  0  0  0  0  0  0
   26.9737   74.8686   -7.8211 H   0  0  0  0  0  0  0  0  0  0  0  0
 25 28  1  0
 25 24  1  0
 25 26  1  1
 25 27  2  0
  1  4  1  0
  1 24  1  0
  1  2  1  6
  1  3  2  0
  6 11  1  0
  6 12  1  0
 29 36  1  0
 29 37  1  0
  9  7  1  1
  7 13  1  0
 10  8  1  1
  8 14  1  0
 37 28  1  1
  4  5  1  0
 33 30  1  6
 30 38  1  0
 34 31  1  1
 31 39  1  0
 35 32  1  1
 32 40  1  0
 41 42  1  0
 41 43  1  0
 15 19  2  0
 16 22  2  0
 12 17  1  6
 17 19  1  0
 17 20  1  0
 18 19  1  0
 18 22  1  0
 18 23  1  0
  9 10  1  0
  9 11  1  0
 10 12  1  0
 11  5  1  6
 33 34  1  0
 33 35  1  0
 34 36  1  0
 35 37  1  0
 36 42  1  6
 20 21  2  0
 21 22  1  0
M  CHG  2   2  -1  26  -1
M  END
>  <COMPND>  (112) 
    8629 

>  <AUTHOR>  (112) 
    GENERATED BY OPEN BABEL 3.1.1

>  <MASTER>  (112) 
        0    0    0    0    0    0    0    0   58    0   58    0

>  <minimizedAffinity>  (112) 
-8.05031

>  <CNNscore>  (112) 
0.3665352464

>  <CNNaffinity>  (112) 
4.0300974846

>  <CNN_VS>  (112) 
1.4771727324

>  <CNNaffinity_variance>  (112) 
0.7971317172

$$$$
113
     RDKit          3D

 43 45  0  0  0  0  0  0  0  0999 V2000
   17.8635   69.5523   -1.9511 P   0  0  2  0  0  0  0  0  0  0  0  0
   16.7971   68.3575   -1.7217 O   0  0  0  0  0  0  0  0  0  0  0  0
   19.2482   69.2716   -1.4458 O   0  0  0  0  0  0  0  0  0  0  0  0
   17.1344   70.8507   -1.3183 O   0  0  0  0  0  0  0  0  0  0  0  0
   17.6734   72.1313   -1.5960 C   0  0  0  0  0  0  0  0  0  0  0  0
   19.4065   72.1175    0.0682 O   0  0  0  0  0  0  0  0  0  0  0  0
   18.3920   74.8204    0.8780 O   0  0  0  0  0  0  0  0  0  0  0  0
   20.5864   75.4336   -0.6204 O   0  0  0  0  0  0  0  0  0  0  0  0
   18.4768   74.2412   -0.4230 C   0  0  1  0  0  0  0  0  0  0  0  0
   19.9150   74.2214   -0.8970 C   0  0  2  0  0  0  0  0  0  0  0  0
   18.1631   72.7556   -0.2966 C   0  0  1  0  0  0  0  0  0  0  0  0
   20.4863   73.0465   -0.1215 C   0  0  2  0  0  0  0  0  0  0  0  0
   18.5881   75.7693    0.8227 H   0  0  0  0  0  0  0  0  0  0  0  0
   20.1865   76.1502   -1.1374 H   0  0  0  0  0  0  0  0  0  0  0  0
   23.0194   72.4666    0.9852 O   0  0  0  0  0  0  0  0  0  0  0  0
   24.4861   70.5200   -2.9263 O   0  0  0  0  0  0  0  0  0  0  0  0
   21.5488   72.3885   -0.8282 N   0  0  0  0  0  0  0  0  0  0  0  0
   23.7476   71.4976   -0.9633 N   0  0  0  0  0  0  0  0  0  0  0  0
   22.7828   72.1454   -0.1812 C   0  0  0  0  0  0  0  0  0  0  0  0
   21.3617   71.9914   -2.1477 C   0  0  0  0  0  0  0  0  0  0  0  0
   22.2923   71.3759   -2.8801 C   0  0  0  0  0  0  0  0  0  0  0  0
   23.6097   71.0845   -2.2789 C   0  0  0  0  0  0  0  0  0  0  0  0
   24.6153   71.3181   -0.5336 H   0  0  0  0  0  0  0  0  0  0  0  0
   17.7699   69.8225   -3.5421 O   0  0  0  0  0  0  0  0  0  0  0  0
   16.5342   69.6726   -4.5734 P   0  0  2  0  0  0  0  0  0  0  0  0
   15.5716   70.9125   -4.1817 O   0  0  0  0  0  0  0  0  0  0  0  0
   15.8617   68.3309   -4.5370 O   0  0  0  0  0  0  0  0  0  0  0  0
   17.1505   70.0731   -6.0103 O   0  0  0  0  0  0  0  0  0  0  0  0
   18.3561   72.1123   -5.9414 O   0  0  0  0  0  0  0  0  0  0  0  0
   18.1948   71.5793  -10.0329 O   0  0  0  0  0  0  0  0  0  0  0  0
   20.6802   71.1860   -8.6487 O   0  0  0  0  0  0  0  0  0  0  0  0
   15.9120   70.8825   -8.3949 O   0  0  0  0  0  0  0  0  0  0  0  0
   18.2885   71.1641   -8.6676 C   0  0  1  0  0  0  0  0  0  0  0  0
   19.5388   71.8008   -8.0575 C   0  0  1  0  0  0  0  0  0  0  0  0
   17.0354   71.6173   -7.9208 C   0  0  2  0  0  0  0  0  0  0  0  0
   19.5644   71.6214   -6.5336 C   0  0  1  0  0  0  0  0  0  0  0  0
   17.1843   71.4412   -6.4086 C   0  0  1  0  0  0  0  0  0  0  0  0
   18.9872   71.2941  -10.5128 H   0  0  0  0  0  0  0  0  0  0  0  0
   20.6516   71.3061   -9.6110 H   0  0  0  0  0  0  0  0  0  0  0  0
   15.8284   71.0025   -9.3533 H   0  0  0  0  0  0  0  0  0  0  0  0
   21.2033   73.3371   -6.8148 O   0  0  0  0  0  0  0  0  0  0  0  0
   20.7195   72.3832   -5.8874 C   0  0  0  0  0  0  0  0  0  0  0  0
   21.9387   73.8298   -6.4171 H   0  0  0  0  0  0  0  0  0  0  0  0
 25 28  1  0
 25 24  1  0
 25 26  1  1
 25 27  2  0
  1  4  1  0
  1 24  1  0
  1  2  1  6
  1  3  2  0
  6 11  1  0
  6 12  1  0
 29 36  1  0
 29 37  1  0
  9  7  1  1
  7 13  1  0
 10  8  1  1
  8 14  1  0
 37 28  1  6
  4  5  1  0
 33 30  1  6
 30 38  1  0
 34 31  1  6
 31 39  1  0
 35 32  1  6
 32 40  1  0
 41 42  1  0
 41 43  1  0
 15 19  2  0
 16 22  2  0
 12 17  1  6
 17 19  1  0
 17 20  1  0
 18 19  1  0
 18 22  1  0
 18 23  1  0
  9 10  1  0
  9 11  1  0
 10 12  1  0
 11  5  1  6
 33 34  1  0
 33 35  1  0
 34 36  1  0
 35 37  1  0
 36 42  1  1
 20 21  2  0
 21 22  1  0
M  CHG  2   2  -1  26  -1
M  END
>  <COMPND>  (113) 
    8629 

>  <AUTHOR>  (113) 
    GENERATED BY OPEN BABEL 3.1.1

>  <MASTER>  (113) 
        0    0    0    0    0    0    0    0   58    0   58    0

>  <minimizedAffinity>  (113) 
-7.71555

>  <CNNscore>  (113) 
0.3609800339

>  <CNNaffinity>  (113) 
4.0177221298

>  <CNN_VS>  (113) 
1.4503175020

>  <CNNaffinity_variance>  (113) 
0.5038917661

$$$$
114
     RDKit          3D

 43 45  0  0  0  0  0  0  0  0999 V2000
   18.1083   71.2569   -1.7828 P   0  0  2  0  0  0  0  0  0  0  0  0
   16.6559   71.8950   -1.4652 O   0  0  0  0  0  0  0  0  0  0  0  0
   18.7558   70.5493   -0.6289 O   0  0  0  0  0  0  0  0  0  0  0  0
   18.9461   72.4910   -2.4097 O   0  0  0  0  0  0  0  0  0  0  0  0
   18.4318   73.8028   -2.2596 C   0  0  0  0  0  0  0  0  0  0  0  0
   20.1650   73.5934   -0.6085 O   0  0  0  0  0  0  0  0  0  0  0  0
   19.9310   76.5621   -0.2577 O   0  0  0  0  0  0  0  0  0  0  0  0
   22.1480   76.3220   -1.8273 O   0  0  0  0  0  0  0  0  0  0  0  0
   19.8084   75.7815   -1.4456 C   0  0  1  0  0  0  0  0  0  0  0  0
   21.1707   75.3043   -1.9040 C   0  0  2  0  0  0  0  0  0  0  0  0
   19.1199   74.4730   -1.0782 C   0  0  1  0  0  0  0  0  0  0  0  0
   21.4428   74.1588   -0.9437 C   0  0  2  0  0  0  0  0  0  0  0  0
   20.3677   77.4031   -0.4672 H   0  0  0  0  0  0  0  0  0  0  0  0
   21.9306   77.0273   -2.4566 H   0  0  0  0  0  0  0  0  0  0  0  0
   23.0012   72.3245    0.5344 O   0  0  0  0  0  0  0  0  0  0  0  0
   24.5618   70.2856   -3.2930 O   0  0  0  0  0  0  0  0  0  0  0  0
   22.2656   73.1378   -1.5283 N   0  0  0  0  0  0  0  0  0  0  0  0
   23.7768   71.3107   -1.3726 N   0  0  0  0  0  0  0  0  0  0  0  0
   23.0097   72.2684   -0.6971 C   0  0  0  0  0  0  0  0  0  0  0  0
   22.3286   73.0059   -2.9113 C   0  0  0  0  0  0  0  0  0  0  0  0
   23.0661   72.0882   -3.5399 C   0  0  0  0  0  0  0  0  0  0  0  0
   23.8734   71.1407   -2.7446 C   0  0  0  0  0  0  0  0  0  0  0  0
   24.3039   70.6943   -0.8139 H   0  0  0  0  0  0  0  0  0  0  0  0
   17.8210   70.3219   -3.0697 O   0  0  0  0  0  0  0  0  0  0  0  0
   18.7953   69.8264   -4.2606 P   0  0  2  0  0  0  0  0  0  0  0  0
   18.1149   68.4406   -4.7443 O   0  0  0  0  0  0  0  0  0  0  0  0
   20.2380   69.7026   -3.8641 O   0  0  0  0  0  0  0  0  0  0  0  0
   18.5203   70.8594   -5.4698 O   0  0  0  0  0  0  0  0  0  0  0  0
   17.7805   73.0984   -5.7072 O   0  0  0  0  0  0  0  0  0  0  0  0
   15.3396   71.2965   -8.5083 O   0  0  0  0  0  0  0  0  0  0  0  0
   17.5213   72.9476   -9.3813 O   0  0  0  0  0  0  0  0  0  0  0  0
   15.9260   69.9409   -6.0187 O   0  0  0  0  0  0  0  0  0  0  0  0
   16.5426   71.4878   -7.7589 C   0  0  1  0  0  0  0  0  0  0  0  0
   17.0594   72.9013   -8.0342 C   0  0  1  0  0  0  0  0  0  0  0  0
   16.2392   71.3061   -6.2729 C   0  0  2  0  0  0  0  0  0  0  0  0
   18.1915   73.2751   -7.0679 C   0  0  1  0  0  0  0  0  0  0  0  0
   17.4121   71.7528   -5.3982 C   0  0  1  0  0  0  0  0  0  0  0  0
   15.5254   71.4100   -9.4528 H   0  0  0  0  0  0  0  0  0  0  0  0
   16.7971   72.7090   -9.9811 H   0  0  0  0  0  0  0  0  0  0  0  0
   15.1819   69.6705   -6.5782 H   0  0  0  0  0  0  0  0  0  0  0  0
   17.6320   75.4102   -7.9830 O   0  0  0  0  0  0  0  0  0  0  0  0
   18.6148   74.7345   -7.2201 C   0  0  0  0  0  0  0  0  0  0  0  0
   17.8879   76.3404   -8.0877 H   0  0  0  0  0  0  0  0  0  0  0  0
 25 28  1  0
 25 24  1  0
 25 26  1  6
 25 27  2  0
  1  4  1  0
  1 24  1  0
  1  2  1  1
  1  3  2  0
  6 11  1  0
  6 12  1  0
 29 36  1  0
 29 37  1  0
  9  7  1  1
  7 13  1  0
 10  8  1  1
  8 14  1  0
 37 28  1  6
  4  5  1  0
 33 30  1  6
 30 38  1  0
 34 31  1  6
 31 39  1  0
 35 32  1  6
 32 40  1  0
 41 42  1  0
 41 43  1  0
 15 19  2  0
 16 22  2  0
 12 17  1  6
 17 19  1  0
 17 20  1  0
 18 19  1  0
 18 22  1  0
 18 23  1  0
  9 10  1  0
  9 11  1  0
 10 12  1  0
 11  5  1  6
 33 34  1  0
 33 35  1  0
 34 36  1  0
 35 37  1  0
 36 42  1  1
 20 21  2  0
 21 22  1  0
M  CHG  2   2  -1  26  -1
M  END
>  <COMPND>  (114) 
    8629 

>  <AUTHOR>  (114) 
    GENERATED BY OPEN BABEL 3.1.1

>  <MASTER>  (114) 
        0    0    0    0    0    0    0    0   58    0   58    0

>  <minimizedAffinity>  (114) 
-7.04029

>  <CNNscore>  (114) 
0.3238190413

>  <CNNaffinity>  (114) 
3.7352957726

>  <CNN_VS>  (114) 
1.2095599174

>  <CNNaffinity_variance>  (114) 
0.5223993659

$$$$
115
     RDKit          3D

 43 45  0  0  0  0  0  0  0  0999 V2000
   20.2338   72.2271   -5.6356 P   0  0  2  0  0  0  0  0  0  0  0  0
   20.5565   71.1728   -4.4517 O   0  0  0  0  0  0  0  0  0  0  0  0
   19.3588   73.3791   -5.2373 O   0  0  0  0  0  0  0  0  0  0  0  0
   19.6725   71.3013   -6.8379 O   0  0  0  0  0  0  0  0  0  0  0  0
   18.6851   71.8386   -7.7006 C   0  0  0  0  0  0  0  0  0  0  0  0
   17.5264   70.1329   -6.4670 O   0  0  0  0  0  0  0  0  0  0  0  0
   15.0968   70.9042   -8.0460 O   0  0  0  0  0  0  0  0  0  0  0  0
   14.6757   72.1537   -5.6589 O   0  0  0  0  0  0  0  0  0  0  0  0
   16.1479   71.7296   -7.5468 C   0  0  1  0  0  0  0  0  0  0  0  0
   16.0112   71.9067   -6.0490 C   0  0  2  0  0  0  0  0  0  0  0  0
   17.4510   70.9480   -7.6571 C   0  0  1  0  0  0  0  0  0  0  0  0
   16.5375   70.5810   -5.5257 C   0  0  2  0  0  0  0  0  0  0  0  0
   14.2543   71.3822   -7.9861 H   0  0  0  0  0  0  0  0  0  0  0  0
   14.3872   73.0080   -6.0161 H   0  0  0  0  0  0  0  0  0  0  0  0
   17.9050   68.4965   -4.1980 O   0  0  0  0  0  0  0  0  0  0  0  0
   18.8382   71.1752   -0.5656 O   0  0  0  0  0  0  0  0  0  0  0  0
   17.1479   70.7062   -4.2322 N   0  0  0  0  0  0  0  0  0  0  0  0
   18.3687   69.8321   -2.3905 N   0  0  0  0  0  0  0  0  0  0  0  0
   17.8096   69.5983   -3.6534 C   0  0  0  0  0  0  0  0  0  0  0  0
   17.0871   71.9174   -3.5516 C   0  0  0  0  0  0  0  0  0  0  0  0
   17.6243   72.1236   -2.3474 C   0  0  0  0  0  0  0  0  0  0  0  0
   18.3337   71.0172   -1.6730 C   0  0  0  0  0  0  0  0  0  0  0  0
   18.8344   69.0744   -1.9676 H   0  0  0  0  0  0  0  0  0  0  0  0
   21.7045   72.6486   -6.1577 O   0  0  0  0  0  0  0  0  0  0  0  0
   22.7899   73.6824   -5.5526 P   0  0  2  0  0  0  0  0  0  0  0  0
   22.3410   75.1030   -6.1833 O   0  0  0  0  0  0  0  0  0  0  0  0
   24.2172   73.3064   -5.8269 O   0  0  0  0  0  0  0  0  0  0  0  0
   22.4171   73.7956   -3.9863 O   0  0  0  0  0  0  0  0  0  0  0  0
   23.5318   74.5867   -2.0503 O   0  0  0  0  0  0  0  0  0  0  0  0
   21.9789   71.0759   -0.5293 O   0  0  0  0  0  0  0  0  0  0  0  0
   20.8505   73.5913    0.2753 O   0  0  0  0  0  0  0  0  0  0  0  0
   22.9912   71.1520   -3.2402 O   0  0  0  0  0  0  0  0  0  0  0  0
   21.9890   72.2504   -1.3453 C   0  0  1  0  0  0  0  0  0  0  0  0
   22.0839   73.4710   -0.4278 C   0  0  1  0  0  0  0  0  0  0  0  0
   23.1889   72.1923   -2.2889 C   0  0  2  0  0  0  0  0  0  0  0  0
   22.3676   74.7473   -1.2314 C   0  0  1  0  0  0  0  0  0  0  0  0
   23.4120   73.5273   -3.0017 C   0  0  1  0  0  0  0  0  0  0  0  0
   21.2191   71.1063    0.0718 H   0  0  0  0  0  0  0  0  0  0  0  0
   20.6830   72.7787    0.7782 H   0  0  0  0  0  0  0  0  0  0  0  0
   22.8514   70.3122   -2.7765 H   0  0  0  0  0  0  0  0  0  0  0  0
   23.3023   75.5021    0.8339 O   0  0  0  0  0  0  0  0  0  0  0  0
   22.6224   75.9493   -0.3246 C   0  0  0  0  0  0  0  0  0  0  0  0
   23.4714   76.2566    1.4203 H   0  0  0  0  0  0  0  0  0  0  0  0
 25 28  1  0
 25 24  1  0
 25 26  1  6
 25 27  2  0
  1  4  1  0
  1 24  1  0
  1  2  1  1
  1  3  2  0
  6 11  1  0
  6 12  1  0
 29 36  1  0
 29 37  1  0
  9  7  1  1
  7 13  1  0
 10  8  1  6
  8 14  1  0
 37 28  1  6
  4  5  1  0
 33 30  1  1
 30 38  1  0
 34 31  1  6
 31 39  1  0
 35 32  1  6
 32 40  1  0
 41 42  1  0
 41 43  1  0
 15 19  2  0
 16 22  2  0
 12 17  1  1
 17 19  1  0
 17 20  1  0
 18 19  1  0
 18 22  1  0
 18 23  1  0
  9 10  1  0
  9 11  1  0
 10 12  1  0
 11  5  1  1
 33 34  1  0
 33 35  1  0
 34 36  1  0
 35 37  1  0
 36 42  1  1
 20 21  2  0
 21 22  1  0
M  CHG  2   2  -1  26  -1
M  END
>  <COMPND>  (115) 
    8629 

>  <AUTHOR>  (115) 
    GENERATED BY OPEN BABEL 3.1.1

>  <MASTER>  (115) 
        0    0    0    0    0    0    0    0   58    0   58    0

>  <minimizedAffinity>  (115) 
-6.74725

>  <CNNscore>  (115) 
0.3017614186

>  <CNNaffinity>  (115) 
3.9636492729

>  <CNN_VS>  (115) 
1.1960763931

>  <CNNaffinity_variance>  (115) 
0.2532473803

$$$$
116
     RDKit          3D

 43 45  0  0  0  0  0  0  0  0999 V2000
   17.7636   75.0314   -5.8999 P   0  0  2  0  0  0  0  0  0  0  0  0
   16.5045   75.8211   -5.2607 O   0  0  0  0  0  0  0  0  0  0  0  0
   18.1308   75.4469   -7.2941 O   0  0  0  0  0  0  0  0  0  0  0  0
   17.3804   73.4709   -5.7097 O   0  0  0  0  0  0  0  0  0  0  0  0
   17.5368   72.5969   -6.8139 C   0  0  0  0  0  0  0  0  0  0  0  0
   19.3079   71.4198   -5.6952 O   0  0  0  0  0  0  0  0  0  0  0  0
   20.6593   71.2925   -8.3688 O   0  0  0  0  0  0  0  0  0  0  0  0
   19.5836   68.7983   -8.1271 O   0  0  0  0  0  0  0  0  0  0  0  0
   19.2701   71.2083   -8.0552 C   0  0  1  0  0  0  0  0  0  0  0  0
   18.9500   69.8603   -7.4434 C   0  0  2  0  0  0  0  0  0  0  0  0
   18.9923   72.1575   -6.8962 C   0  0  1  0  0  0  0  0  0  0  0  0
   19.4620   70.0293   -6.0231 C   0  0  2  0  0  0  0  0  0  0  0  0
   20.8608   70.6951   -9.1066 H   0  0  0  0  0  0  0  0  0  0  0  0
   19.2239   68.7315   -9.0254 H   0  0  0  0  0  0  0  0  0  0  0  0
   20.4405   69.2383   -3.4943 O   0  0  0  0  0  0  0  0  0  0  0  0
   16.5365   67.0099   -2.4770 O   0  0  0  0  0  0  0  0  0  0  0  0
   18.7223   69.2424   -5.0770 N   0  0  0  0  0  0  0  0  0  0  0  0
   18.4957   68.1295   -2.9898 N   0  0  0  0  0  0  0  0  0  0  0  0
   19.3056   68.8984   -3.8353 C   0  0  0  0  0  0  0  0  0  0  0  0
   17.4333   68.8204   -5.3841 C   0  0  0  0  0  0  0  0  0  0  0  0
   16.6746   68.0866   -4.5673 C   0  0  0  0  0  0  0  0  0  0  0  0
   17.2093   67.6846   -3.2503 C   0  0  0  0  0  0  0  0  0  0  0  0
   18.8813   67.8777   -2.1193 H   0  0  0  0  0  0  0  0  0  0  0  0
   18.9287   75.2558   -4.8021 O   0  0  0  0  0  0  0  0  0  0  0  0
   20.5185   74.9708   -4.8681 P   0  0  2  0  0  0  0  0  0  0  0  0
   21.1632   76.3193   -4.2490 O   0  0  0  0  0  0  0  0  0  0  0  0
   21.0236   74.6145   -6.2362 O   0  0  0  0  0  0  0  0  0  0  0  0
   20.7780   73.8417   -3.7443 O   0  0  0  0  0  0  0  0  0  0  0  0
   19.7011   73.4754   -1.6652 O   0  0  0  0  0  0  0  0  0  0  0  0
   23.5580   72.4565   -0.5990 O   0  0  0  0  0  0  0  0  0  0  0  0
   21.5759   70.3983   -0.8870 O   0  0  0  0  0  0  0  0  0  0  0  0
   23.0961   74.6751   -2.4001 O   0  0  0  0  0  0  0  0  0  0  0  0
   22.4305   72.5539   -1.4735 C   0  0  1  0  0  0  0  0  0  0  0  0
   21.2662   71.7884   -0.8418 C   0  0  1  0  0  0  0  0  0  0  0  0
   22.0684   74.0262   -1.6590 C   0  0  2  0  0  0  0  0  0  0  0  0
   19.9522   72.0675   -1.5837 C   0  0  1  0  0  0  0  0  0  0  0  0
   20.7209   74.1920   -2.3639 C   0  0  1  0  0  0  0  0  0  0  0  0
   23.7934   71.5241   -0.4775 H   0  0  0  0  0  0  0  0  0  0  0  0
   22.4079   70.2356   -0.4154 H   0  0  0  0  0  0  0  0  0  0  0  0
   23.9439   74.5632   -1.9433 H   0  0  0  0  0  0  0  0  0  0  0  0
   18.9273   70.0358   -0.8553 O   0  0  0  0  0  0  0  0  0  0  0  0
   18.7522   71.4405   -0.8774 C   0  0  0  0  0  0  0  0  0  0  0  0
   18.1711   69.6233   -0.4084 H   0  0  0  0  0  0  0  0  0  0  0  0
 25 28  1  0
 25 24  1  0
 25 26  1  1
 25 27  2  0
  1  4  1  0
  1 24  1  0
  1  2  1  1
  1  3  2  0
  6 11  1  0
  6 12  1  0
 29 36  1  0
 29 37  1  0
  9  7  1  1
  7 13  1  0
 10  8  1  6
  8 14  1  0
 37 28  1  6
  4  5  1  0
 33 30  1  1
 30 38  1  0
 34 31  1  6
 31 39  1  0
 35 32  1  6
 32 40  1  0
 41 42  1  0
 41 43  1  0
 15 19  2  0
 16 22  2  0
 12 17  1  1
 17 19  1  0
 17 20  1  0
 18 19  1  0
 18 22  1  0
 18 23  1  0
  9 10  1  0
  9 11  1  0
 10 12  1  0
 11  5  1  1
 33 34  1  0
 33 35  1  0
 34 36  1  0
 35 37  1  0
 36 42  1  1
 20 21  2  0
 21 22  1  0
M  CHG  2   2  -1  26  -1
M  END
>  <COMPND>  (116) 
    8629 

>  <AUTHOR>  (116) 
    GENERATED BY OPEN BABEL 3.1.1

>  <MASTER>  (116) 
        0    0    0    0    0    0    0    0   58    0   58    0

>  <minimizedAffinity>  (116) 
-6.36232

>  <CNNscore>  (116) 
0.3014828265

>  <CNNaffinity>  (116) 
3.9478042126

>  <CNN_VS>  (116) 
1.1901952028

>  <CNNaffinity_variance>  (116) 
0.6031503081

$$$$
117
     RDKit          3D

 43 45  0  0  0  0  0  0  0  0999 V2000
   18.4998   75.5717   -4.0310 P   0  0  2  0  0  0  0  0  0  0  0  0
   18.7914   74.7913   -2.6442 O   0  0  0  0  0  0  0  0  0  0  0  0
   17.4298   76.6208   -3.9550 O   0  0  0  0  0  0  0  0  0  0  0  0
   18.2440   74.3835   -5.0990 O   0  0  0  0  0  0  0  0  0  0  0  0
   17.4434   74.6568   -6.2357 C   0  0  0  0  0  0  0  0  0  0  0  0
   18.5892   72.6434   -6.8737 O   0  0  0  0  0  0  0  0  0  0  0  0
   17.3747   73.0345   -9.5872 O   0  0  0  0  0  0  0  0  0  0  0  0
   15.7684   71.1254   -8.4866 O   0  0  0  0  0  0  0  0  0  0  0  0
   16.8197   73.3098   -8.3021 C   0  0  1  0  0  0  0  0  0  0  0  0
   16.4252   72.0205   -7.6125 C   0  0  2  0  0  0  0  0  0  0  0  0
   17.9414   73.8196   -7.4059 C   0  0  1  0  0  0  0  0  0  0  0  0
   17.7686   71.4936   -7.1372 C   0  0  2  0  0  0  0  0  0  0  0  0
   16.6769   72.7078  -10.1773 H   0  0  0  0  0  0  0  0  0  0  0  0
   14.9192   71.5055   -8.7607 H   0  0  0  0  0  0  0  0  0  0  0  0
   19.3836   69.2572   -6.5305 O   0  0  0  0  0  0  0  0  0  0  0  0
   17.2524   68.5810   -2.5004 O   0  0  0  0  0  0  0  0  0  0  0  0
   17.6576   70.7148   -5.9362 N   0  0  0  0  0  0  0  0  0  0  0  0
   18.3213   68.9224   -4.5243 N   0  0  0  0  0  0  0  0  0  0  0  0
   18.5164   69.6103   -5.7287 C   0  0  0  0  0  0  0  0  0  0  0  0
   16.7055   71.0488   -4.9791 C   0  0  0  0  0  0  0  0  0  0  0  0
   16.5313   70.3819   -3.8363 C   0  0  0  0  0  0  0  0  0  0  0  0
   17.3880   69.2149   -3.5424 C   0  0  0  0  0  0  0  0  0  0  0  0
   18.9080   68.1491   -4.3583 H   0  0  0  0  0  0  0  0  0  0  0  0
   19.9588   76.1280   -4.4489 O   0  0  0  0  0  0  0  0  0  0  0  0
   21.1975   75.4042   -5.1938 P   0  0  2  0  0  0  0  0  0  0  0  0
   22.4420   76.3921   -4.8894 O   0  0  0  0  0  0  0  0  0  0  0  0
   20.9648   75.1324   -6.6519 O   0  0  0  0  0  0  0  0  0  0  0  0
   21.4950   74.0887   -4.3074 O   0  0  0  0  0  0  0  0  0  0  0  0
   22.3111   74.1523   -2.0833 O   0  0  0  0  0  0  0  0  0  0  0  0
   23.7848   70.4668   -3.2216 O   0  0  0  0  0  0  0  0  0  0  0  0
   21.5797   70.6071   -1.3870 O   0  0  0  0  0  0  0  0  0  0  0  0
   23.7764   72.6635   -5.1068 O   0  0  0  0  0  0  0  0  0  0  0  0
   22.8399   71.5400   -3.1932 C   0  0  1  0  0  0  0  0  0  0  0  0
   22.3759   71.7322   -1.7480 C   0  0  1  0  0  0  0  0  0  0  0  0
   23.5102   72.8092   -3.7160 C   0  0  2  0  0  0  0  0  0  0  0  0
   21.5700   73.0290   -1.5928 C   0  0  1  0  0  0  0  0  0  0  0  0
   22.6464   74.0471   -3.4684 C   0  0  1  0  0  0  0  0  0  0  0  0
   23.3654   69.6578   -2.8913 H   0  0  0  0  0  0  0  0  0  0  0  0
   22.1001   69.7948   -1.4899 H   0  0  0  0  0  0  0  0  0  0  0  0
   24.3242   71.8766   -5.2503 H   0  0  0  0  0  0  0  0  0  0  0  0
   21.6197   74.6504    0.1615 O   0  0  0  0  0  0  0  0  0  0  0  0
   21.2319   73.3209   -0.1325 C   0  0  0  0  0  0  0  0  0  0  0  0
   21.4102   74.8503    1.0877 H   0  0  0  0  0  0  0  0  0  0  0  0
 25 28  1  0
 25 24  1  0
 25 26  1  6
 25 27  2  0
  1  4  1  0
  1 24  1  0
  1  2  1  1
  1  3  2  0
  6 11  1  0
  6 12  1  0
 29 36  1  0
 29 37  1  0
  9  7  1  6
  7 13  1  0
 10  8  1  6
  8 14  1  0
 37 28  1  6
  4  5  1  0
 33 30  1  1
 30 38  1  0
 34 31  1  6
 31 39  1  0
 35 32  1  6
 32 40  1  0
 41 42  1  0
 41 43  1  0
 15 19  2  0
 16 22  2  0
 12 17  1  1
 17 19  1  0
 17 20  1  0
 18 19  1  0
 18 22  1  0
 18 23  1  0
  9 10  1  0
  9 11  1  0
 10 12  1  0
 11  5  1  1
 33 34  1  0
 33 35  1  0
 34 36  1  0
 35 37  1  0
 36 42  1  1
 20 21  2  0
 21 22  1  0
M  CHG  2   2  -1  26  -1
M  END
>  <COMPND>  (117) 
    8629 

>  <AUTHOR>  (117) 
    GENERATED BY OPEN BABEL 3.1.1

>  <MASTER>  (117) 
        0    0    0    0    0    0    0    0   58    0   58    0

>  <minimizedAffinity>  (117) 
-6.38589

>  <CNNscore>  (117) 
0.2990226150

>  <CNNaffinity>  (117) 
4.1141052246

>  <CNN_VS>  (117) 
1.2302105427

>  <CNNaffinity_variance>  (117) 
0.2301287651

$$$$
118
     RDKit          3D

 43 45  0  0  0  0  0  0  0  0999 V2000
   17.8204   75.2565   -6.0174 P   0  0  2  0  0  0  0  0  0  0  0  0
   16.4899   76.1591   -6.1978 O   0  0  0  0  0  0  0  0  0  0  0  0
   19.1111   76.0217   -6.0240 O   0  0  0  0  0  0  0  0  0  0  0  0
   17.6737   74.1165   -7.1562 O   0  0  0  0  0  0  0  0  0  0  0  0
   17.7276   72.7564   -6.7622 C   0  0  0  0  0  0  0  0  0  0  0  0
   19.4748   71.5069   -5.6853 O   0  0  0  0  0  0  0  0  0  0  0  0
   20.7693   71.3484   -8.3853 O   0  0  0  0  0  0  0  0  0  0  0  0
   19.6067   68.8940   -8.1385 O   0  0  0  0  0  0  0  0  0  0  0  0
   19.3842   71.3133   -8.0454 C   0  0  1  0  0  0  0  0  0  0  0  0
   19.0260   69.9739   -7.4360 C   0  0  2  0  0  0  0  0  0  0  0  0
   19.1639   72.2641   -6.8754 C   0  0  1  0  0  0  0  0  0  0  0  0
   19.5709   70.1140   -6.0248 C   0  0  2  0  0  0  0  0  0  0  0  0
   20.9344   70.7490   -9.1306 H   0  0  0  0  0  0  0  0  0  0  0  0
   19.2276   68.8468   -9.0300 H   0  0  0  0  0  0  0  0  0  0  0  0
   20.4836   69.4612   -3.4327 O   0  0  0  0  0  0  0  0  0  0  0  0
   16.6080   67.1703   -2.4463 O   0  0  0  0  0  0  0  0  0  0  0  0
   18.8207   69.3483   -5.0696 N   0  0  0  0  0  0  0  0  0  0  0  0
   18.5531   68.3212   -2.9436 N   0  0  0  0  0  0  0  0  0  0  0  0
   19.3705   69.0751   -3.7954 C   0  0  0  0  0  0  0  0  0  0  0  0
   17.5546   68.8774   -5.3998 C   0  0  0  0  0  0  0  0  0  0  0  0
   16.7884   68.1587   -4.5766 C   0  0  0  0  0  0  0  0  0  0  0  0
   17.2886   67.8294   -3.2263 C   0  0  0  0  0  0  0  0  0  0  0  0
   18.9154   68.1182   -2.0507 H   0  0  0  0  0  0  0  0  0  0  0  0
   17.5264   74.4448   -4.6508 O   0  0  0  0  0  0  0  0  0  0  0  0
   18.3249   74.4072   -3.2458 P   0  0  2  0  0  0  0  0  0  0  0  0
   17.4878   73.3333   -2.3719 O   0  0  0  0  0  0  0  0  0  0  0  0
   18.4829   75.7492   -2.5917 O   0  0  0  0  0  0  0  0  0  0  0  0
   19.7150   73.6610   -3.5858 O   0  0  0  0  0  0  0  0  0  0  0  0
   21.3886   73.7198   -1.9088 O   0  0  0  0  0  0  0  0  0  0  0  0
   23.7243   72.6269   -5.1339 O   0  0  0  0  0  0  0  0  0  0  0  0
   23.1217   70.6918   -3.0991 O   0  0  0  0  0  0  0  0  0  0  0  0
   21.5831   74.5430   -5.4852 O   0  0  0  0  0  0  0  0  0  0  0  0
   22.5393   72.6559   -4.3337 C   0  0  1  0  0  0  0  0  0  0  0  0
   22.8783   72.0883   -2.9540 C   0  0  1  0  0  0  0  0  0  0  0  0
   22.0514   74.0987   -4.2164 C   0  0  2  0  0  0  0  0  0  0  0  0
   21.7354   72.3310   -1.9590 C   0  0  1  0  0  0  0  0  0  0  0  0
   20.9485   74.2383   -3.1656 C   0  0  1  0  0  0  0  0  0  0  0  0
   24.0391   71.7135   -5.2127 H   0  0  0  0  0  0  0  0  0  0  0  0
   23.8451   70.5523   -3.7303 H   0  0  0  0  0  0  0  0  0  0  0  0
   22.2905   74.4498   -6.1415 H   0  0  0  0  0  0  0  0  0  0  0  0
   23.4651   71.4893   -0.5417 O   0  0  0  0  0  0  0  0  0  0  0  0
   22.1147   71.9144   -0.5396 C   0  0  0  0  0  0  0  0  0  0  0  0
   23.7206   71.2215    0.3554 H   0  0  0  0  0  0  0  0  0  0  0  0
 25 28  1  0
 25 24  1  0
 25 26  1  1
 25 27  2  0
  1  4  1  0
  1 24  1  0
  1  2  1  6
  1  3  2  0
  6 11  1  0
  6 12  1  0
 29 36  1  0
 29 37  1  0
  9  7  1  1
  7 13  1  0
 10  8  1  6
  8 14  1  0
 37 28  1  6
  4  5  1  0
 33 30  1  6
 30 38  1  0
 34 31  1  6
 31 39  1  0
 35 32  1  6
 32 40  1  0
 41 42  1  0
 41 43  1  0
 15 19  2  0
 16 22  2  0
 12 17  1  1
 17 19  1  0
 17 20  1  0
 18 19  1  0
 18 22  1  0
 18 23  1  0
  9 10  1  0
  9 11  1  0
 10 12  1  0
 11  5  1  1
 33 34  1  0
 33 35  1  0
 34 36  1  0
 35 37  1  0
 36 42  1  1
 20 21  2  0
 21 22  1  0
M  CHG  2   2  -1  26  -1
M  END
>  <COMPND>  (118) 
    8629 

>  <AUTHOR>  (118) 
    GENERATED BY OPEN BABEL 3.1.1

>  <MASTER>  (118) 
        0    0    0    0    0    0    0    0   58    0   58    0

>  <minimizedAffinity>  (118) 
-6.53100

>  <CNNscore>  (118) 
0.2826408148

>  <CNNaffinity>  (118) 
3.9635727406

>  <CNN_VS>  (118) 
1.1202673912

>  <CNNaffinity_variance>  (118) 
0.5789933801

$$$$
119
     RDKit          3D

 43 45  0  0  0  0  0  0  0  0999 V2000
   21.3617   71.1944   -1.6637 P   0  0  2  0  0  0  0  0  0  0  0  0
   22.6747   70.6784   -0.8719 O   0  0  0  0  0  0  0  0  0  0  0  0
   20.6327   72.3309   -1.0092 O   0  0  0  0  0  0  0  0  0  0  0  0
   20.4963   69.8478   -1.9000 O   0  0  0  0  0  0  0  0  0  0  0  0
   19.8687   69.6591   -3.1562 C   0  0  0  0  0  0  0  0  0  0  0  0
   17.8701   70.5958   -4.1061 O   0  0  0  0  0  0  0  0  0  0  0  0
   16.3650   68.6931   -2.3439 O   0  0  0  0  0  0  0  0  0  0  0  0
   16.2833   67.4485   -4.7690 O   0  0  0  0  0  0  0  0  0  0  0  0
   17.6054   68.5046   -3.0232 C   0  0  1  0  0  0  0  0  0  0  0  0
   17.3687   68.3144   -4.5069 C   0  0  2  0  0  0  0  0  0  0  0  0
   18.3645   69.8252   -2.9889 C   0  0  1  0  0  0  0  0  0  0  0  0
   17.1061   69.7376   -4.9691 C   0  0  2  0  0  0  0  0  0  0  0  0
   15.8625   67.8628   -2.3525 H   0  0  0  0  0  0  0  0  0  0  0  0
   16.4989   66.5558   -4.4569 H   0  0  0  0  0  0  0  0  0  0  0  0
   15.7038   71.3451   -6.8204 O   0  0  0  0  0  0  0  0  0  0  0  0
   18.7745   70.5059  -10.1532 O   0  0  0  0  0  0  0  0  0  0  0  0
   17.5168   69.9570   -6.3272 N   0  0  0  0  0  0  0  0  0  0  0  0
   17.2340   70.9261   -8.4784 N   0  0  0  0  0  0  0  0  0  0  0  0
   16.7410   70.7811   -7.1753 C   0  0  0  0  0  0  0  0  0  0  0  0
   18.6774   69.3584   -6.8055 C   0  0  0  0  0  0  0  0  0  0  0  0
   19.1333   69.5057   -8.0512 C   0  0  0  0  0  0  0  0  0  0  0  0
   18.3814   70.3508   -9.0012 C   0  0  0  0  0  0  0  0  0  0  0  0
   16.7098   71.4954   -9.0872 H   0  0  0  0  0  0  0  0  0  0  0  0
   21.9330   71.5227   -3.1398 O   0  0  0  0  0  0  0  0  0  0  0  0
   22.6068   72.8623   -3.7436 P   0  0  2  0  0  0  0  0  0  0  0  0
   23.8350   72.2930   -4.6294 O   0  0  0  0  0  0  0  0  0  0  0  0
   23.0068   73.8712   -2.7062 O   0  0  0  0  0  0  0  0  0  0  0  0
   21.5396   73.4038   -4.8266 O   0  0  0  0  0  0  0  0  0  0  0  0
   20.8064   75.5614   -5.4775 O   0  0  0  0  0  0  0  0  0  0  0  0
   17.1606   73.6248   -5.3878 O   0  0  0  0  0  0  0  0  0  0  0  0
   18.3337   74.3226   -7.9146 O   0  0  0  0  0  0  0  0  0  0  0  0
   19.1623   73.0279   -3.3837 O   0  0  0  0  0  0  0  0  0  0  0  0
   18.5691   73.7411   -5.6065 C   0  0  1  0  0  0  0  0  0  0  0  0
   18.8026   74.8211   -6.6648 C   0  0  1  0  0  0  0  0  0  0  0  0
   19.2487   74.1205   -4.2922 C   0  0  2  0  0  0  0  0  0  0  0  0
   20.2889   75.1907   -6.7606 C   0  0  1  0  0  0  0  0  0  0  0  0
   20.7104   74.5177   -4.5062 C   0  0  1  0  0  0  0  0  0  0  0  0
   16.7231   73.3836   -6.2184 H   0  0  0  0  0  0  0  0  0  0  0  0
   17.3942   74.0925   -7.8404 H   0  0  0  0  0  0  0  0  0  0  0  0
   18.2321   72.7863   -3.2564 H   0  0  0  0  0  0  0  0  0  0  0  0
   19.2934   77.0458   -7.8904 O   0  0  0  0  0  0  0  0  0  0  0  0
   20.5247   76.3748   -7.6958 C   0  0  0  0  0  0  0  0  0  0  0  0
   19.4282   77.8020   -8.4834 H   0  0  0  0  0  0  0  0  0  0  0  0
 25 28  1  0
 25 24  1  0
 25 26  1  6
 25 27  2  0
  1  4  1  0
  1 24  1  0
  1  2  1  1
  1  3  2  0
  6 11  1  0
  6 12  1  0
 29 36  1  0
 29 37  1  0
  9  7  1  1
  7 13  1  0
 10  8  1  1
  8 14  1  0
 37 28  1  6
  4  5  1  0
 33 30  1  1
 30 38  1  0
 34 31  1  6
 31 39  1  0
 35 32  1  1
 32 40  1  0
 41 42  1  0
 41 43  1  0
 15 19  2  0
 16 22  2  0
 12 17  1  6
 17 19  1  0
 17 20  1  0
 18 19  1  0
 18 22  1  0
 18 23  1  0
  9 10  1  0
  9 11  1  0
 10 12  1  0
 11  5  1  6
 33 34  1  0
 33 35  1  0
 34 36  1  0
 35 37  1  0
 36 42  1  6
 20 21  2  0
 21 22  1  0
M  CHG  2   2  -1  26  -1
M  END
>  <COMPND>  (119) 
    8629 

>  <AUTHOR>  (119) 
    GENERATED BY OPEN BABEL 3.1.1

>  <MASTER>  (119) 
        0    0    0    0    0    0    0    0   58    0   58    0

>  <minimizedAffinity>  (119) 
-7.15331

>  <CNNscore>  (119) 
0.2783994973

>  <CNNaffinity>  (119) 
4.0599565506

>  <CNN_VS>  (119) 
1.1302899122

>  <CNNaffinity_variance>  (119) 
0.4964343905

$$$$
120
     RDKit          3D

 43 45  0  0  0  0  0  0  0  0999 V2000
   16.6710   70.5512   -4.0109 P   0  0  2  0  0  0  0  0  0  0  0  0
   15.7233   71.7963   -4.4219 O   0  0  0  0  0  0  0  0  0  0  0  0
   16.0633   69.1956   -4.2221 O   0  0  0  0  0  0  0  0  0  0  0  0
   17.1223   70.8904   -2.4947 O   0  0  0  0  0  0  0  0  0  0  0  0
   17.7010   72.1562   -2.2286 C   0  0  0  0  0  0  0  0  0  0  0  0
   19.0819   71.5142   -0.3699 O   0  0  0  0  0  0  0  0  0  0  0  0
   17.8843   73.8469    1.0844 O   0  0  0  0  0  0  0  0  0  0  0  0
   20.3149   74.8123    0.3121 O   0  0  0  0  0  0  0  0  0  0  0  0
   18.2275   73.7233   -0.2948 C   0  0  1  0  0  0  0  0  0  0  0  0
   19.7302   73.7915   -0.4708 C   0  0  2  0  0  0  0  0  0  0  0  0
   17.9210   72.2953   -0.7285 C   0  0  1  0  0  0  0  0  0  0  0  0
   20.1618   72.4013   -0.0358 C   0  0  2  0  0  0  0  0  0  0  0  0
   18.0710   74.7509    1.3842 H   0  0  0  0  0  0  0  0  0  0  0  0
   20.0096   75.6771   -0.0036 H   0  0  0  0  0  0  0  0  0  0  0  0
   22.7823   73.1566    0.6994 O   0  0  0  0  0  0  0  0  0  0  0  0
   24.6509   70.6543   -2.6900 O   0  0  0  0  0  0  0  0  0  0  0  0
   21.3515   71.9617   -0.7085 N   0  0  0  0  0  0  0  0  0  0  0  0
   23.7106   71.9099   -0.9887 N   0  0  0  0  0  0  0  0  0  0  0  0
   22.6193   72.4003   -0.2603 C   0  0  0  0  0  0  0  0  0  0  0  0
   21.2543   71.1049   -1.7995 C   0  0  0  0  0  0  0  0  0  0  0  0
   22.3046   70.6474   -2.4842 C   0  0  0  0  0  0  0  0  0  0  0  0
   23.6651   71.0577   -2.0807 C   0  0  0  0  0  0  0  0  0  0  0  0
   24.6038   72.2023   -0.6949 H   0  0  0  0  0  0  0  0  0  0  0  0
   18.0186   70.8241   -4.8608 O   0  0  0  0  0  0  0  0  0  0  0  0
   19.3450   69.9233   -5.0659 P   0  0  2  0  0  0  0  0  0  0  0  0
   19.1658   69.3340   -6.5619 O   0  0  0  0  0  0  0  0  0  0  0  0
   19.5479   68.8771   -4.0084 O   0  0  0  0  0  0  0  0  0  0  0  0
   20.5489   70.9912   -5.1899 O   0  0  0  0  0  0  0  0  0  0  0  0
   20.7622   73.3028   -4.7131 O   0  0  0  0  0  0  0  0  0  0  0  0
   22.7362   73.1920   -8.3382 O   0  0  0  0  0  0  0  0  0  0  0  0
   24.2384   73.5443   -5.9160 O   0  0  0  0  0  0  0  0  0  0  0  0
   20.3738   71.5696   -7.9303 O   0  0  0  0  0  0  0  0  0  0  0  0
   22.3218   72.6908   -7.0645 C   0  0  1  0  0  0  0  0  0  0  0  0
   22.8194   73.6542   -5.9851 C   0  0  1  0  0  0  0  0  0  0  0  0
   20.7975   72.5945   -7.0379 C   0  0  2  0  0  0  0  0  0  0  0  0
   22.1915   73.3316   -4.6225 C   0  0  1  0  0  0  0  0  0  0  0  0
   20.2735   72.3194   -5.6273 C   0  0  1  0  0  0  0  0  0  0  0  0
   23.7032   73.2551   -8.3619 H   0  0  0  0  0  0  0  0  0  0  0  0
   24.6224   73.7499   -6.7828 H   0  0  0  0  0  0  0  0  0  0  0  0
   20.7116   71.7555   -8.8198 H   0  0  0  0  0  0  0  0  0  0  0  0
   22.8989   75.5787   -4.2236 O   0  0  0  0  0  0  0  0  0  0  0  0
   22.5506   74.3743   -3.5661 C   0  0  0  0  0  0  0  0  0  0  0  0
   23.1295   76.2516   -3.5636 H   0  0  0  0  0  0  0  0  0  0  0  0
 25 28  1  0
 25 24  1  0
 25 26  1  6
 25 27  2  0
  1  4  1  0
  1 24  1  0
  1  2  1  6
  1  3  2  0
  6 11  1  0
  6 12  1  0
 29 36  1  0
 29 37  1  0
  9  7  1  1
  7 13  1  0
 10  8  1  1
  8 14  1  0
 37 28  1  1
  4  5  1  0
 33 30  1  6
 30 38  1  0
 34 31  1  1
 31 39  1  0
 35 32  1  6
 32 40  1  0
 41 42  1  0
 41 43  1  0
 15 19  2  0
 16 22  2  0
 12 17  1  6
 17 19  1  0
 17 20  1  0
 18 19  1  0
 18 22  1  0
 18 23  1  0
  9 10  1  0
  9 11  1  0
 10 12  1  0
 11  5  1  6
 33 34  1  0
 33 35  1  0
 34 36  1  0
 35 37  1  0
 36 42  1  1
 20 21  2  0
 21 22  1  0
M  CHG  2   2  -1  26  -1
M  END
>  <COMPND>  (120) 
    8629 

>  <AUTHOR>  (120) 
    GENERATED BY OPEN BABEL 3.1.1

>  <MASTER>  (120) 
        0    0    0    0    0    0    0    0   58    0   58    0

>  <minimizedAffinity>  (120) 
-6.93938

>  <CNNscore>  (120) 
0.2704741657

>  <CNNaffinity>  (120) 
3.5985713005

>  <CNN_VS>  (120) 
0.9733205438

>  <CNNaffinity_variance>  (120) 
0.9248979688

$$$$
121
     RDKit          3D

 43 45  0  0  0  0  0  0  0  0999 V2000
   21.7325   71.2189   -2.9724 P   0  0  2  0  0  0  0  0  0  0  0  0
   23.2598   70.7467   -3.2211 O   0  0  0  0  0  0  0  0  0  0  0  0
   21.2913   71.2080   -1.5383 O   0  0  0  0  0  0  0  0  0  0  0  0
   20.8703   70.2918   -3.9798 O   0  0  0  0  0  0  0  0  0  0  0  0
   20.1480   69.1982   -3.4412 C   0  0  0  0  0  0  0  0  0  0  0  0
   18.2938   70.5090   -4.2271 O   0  0  0  0  0  0  0  0  0  0  0  0
   16.5991   68.8928   -2.3544 O   0  0  0  0  0  0  0  0  0  0  0  0
   16.0960   67.7268   -4.7678 O   0  0  0  0  0  0  0  0  0  0  0  0
   17.7251   68.4866   -3.1306 C   0  0  1  0  0  0  0  0  0  0  0  0
   17.3422   68.3692   -4.5912 C   0  0  2  0  0  0  0  0  0  0  0  0
   18.7196   69.6406   -3.1543 C   0  0  1  0  0  0  0  0  0  0  0  0
   17.3171   69.8241   -5.0282 C   0  0  2  0  0  0  0  0  0  0  0  0
   15.9502   68.1717   -2.3246 H   0  0  0  0  0  0  0  0  0  0  0  0
   16.1633   66.8044   -4.4756 H   0  0  0  0  0  0  0  0  0  0  0  0
   15.7937   71.3189   -6.8782 O   0  0  0  0  0  0  0  0  0  0  0  0
   18.7080   70.3728  -10.3210 O   0  0  0  0  0  0  0  0  0  0  0  0
   17.6548   69.9855   -6.4143 N   0  0  0  0  0  0  0  0  0  0  0  0
   17.2461   70.8467   -8.5909 N   0  0  0  0  0  0  0  0  0  0  0  0
   16.8220   70.7557   -7.2590 C   0  0  0  0  0  0  0  0  0  0  0  0
   18.8008   69.3839   -6.9229 C   0  0  0  0  0  0  0  0  0  0  0  0
   19.1907   69.4793   -8.1958 C   0  0  0  0  0  0  0  0  0  0  0  0
   18.3763   70.2661   -9.1443 C   0  0  0  0  0  0  0  0  0  0  0  0
   16.6814   71.3780   -9.1980 H   0  0  0  0  0  0  0  0  0  0  0  0
   21.6811   72.6709   -3.6810 O   0  0  0  0  0  0  0  0  0  0  0  0
   22.7656   73.4442   -4.5968 P   0  0  2  0  0  0  0  0  0  0  0  0
   21.8592   74.4707   -5.4583 O   0  0  0  0  0  0  0  0  0  0  0  0
   23.6306   72.5378   -5.4239 O   0  0  0  0  0  0  0  0  0  0  0  0
   23.5762   74.3837   -3.5646 O   0  0  0  0  0  0  0  0  0  0  0  0
   21.9091   75.3617   -2.1932 O   0  0  0  0  0  0  0  0  0  0  0  0
   25.2566   77.0695   -0.4820 O   0  0  0  0  0  0  0  0  0  0  0  0
   23.8364   75.0107    0.9295 O   0  0  0  0  0  0  0  0  0  0  0  0
   25.1232   76.7153   -3.3519 O   0  0  0  0  0  0  0  0  0  0  0  0
   24.5052   76.0365   -1.1251 C   0  0  1  0  0  0  0  0  0  0  0  0
   23.3237   75.6712   -0.2243 C   0  0  1  0  0  0  0  0  0  0  0  0
   24.0122   76.5463   -2.4781 C   0  0  2  0  0  0  0  0  0  0  0  0
   22.3260   74.7659   -0.9591 C   0  0  1  0  0  0  0  0  0  0  0  0
   22.9877   75.5960   -3.1006 C   0  0  1  0  0  0  0  0  0  0  0  0
   25.5730   76.7521    0.3774 H   0  0  0  0  0  0  0  0  0  0  0  0
   24.4654   75.5929    1.3840 H   0  0  0  0  0  0  0  0  0  0  0  0
   25.7642   77.3192   -2.9466 H   0  0  0  0  0  0  0  0  0  0  0  0
   21.2158   73.2942    0.5610 O   0  0  0  0  0  0  0  0  0  0  0  0
   21.0645   74.5177   -0.1350 C   0  0  0  0  0  0  0  0  0  0  0  0
   20.4205   73.1234    1.0901 H   0  0  0  0  0  0  0  0  0  0  0  0
 25 28  1  0
 25 24  1  0
 25 26  1  6
 25 27  2  0
  1  4  1  0
  1 24  1  0
  1  2  1  1
  1  3  2  0
  6 11  1  0
  6 12  1  0
 29 36  1  0
 29 37  1  0
  9  7  1  1
  7 13  1  0
 10  8  1  1
  8 14  1  0
 37 28  1  1
  4  5  1  0
 33 30  1  1
 30 38  1  0
 34 31  1  1
 31 39  1  0
 35 32  1  6
 32 40  1  0
 41 42  1  0
 41 43  1  0
 15 19  2  0
 16 22  2  0
 12 17  1  6
 17 19  1  0
 17 20  1  0
 18 19  1  0
 18 22  1  0
 18 23  1  0
  9 10  1  0
  9 11  1  0
 10 12  1  0
 11  5  1  6
 33 34  1  0
 33 35  1  0
 34 36  1  0
 35 37  1  0
 36 42  1  1
 20 21  2  0
 21 22  1  0
M  CHG  2   2  -1  26  -1
M  END
>  <COMPND>  (121) 
    8629 

>  <AUTHOR>  (121) 
    GENERATED BY OPEN BABEL 3.1.1

>  <MASTER>  (121) 
        0    0    0    0    0    0    0    0   58    0   58    0

>  <minimizedAffinity>  (121) 
-7.52806

>  <CNNscore>  (121) 
0.6771696210

>  <CNNaffinity>  (121) 
4.5671911240

>  <CNN_VS>  (121) 
3.0927631855

>  <CNNaffinity_variance>  (121) 
0.0640957803

$$$$
122
     RDKit          3D

 43 45  0  0  0  0  0  0  0  0999 V2000
   20.4858   70.5269   -1.6338 P   0  0  2  0  0  0  0  0  0  0  0  0
   20.1512   69.3100   -0.6215 O   0  0  0  0  0  0  0  0  0  0  0  0
   19.6228   71.7433   -1.4697 O   0  0  0  0  0  0  0  0  0  0  0  0
   20.4546   69.8353   -3.0962 O   0  0  0  0  0  0  0  0  0  0  0  0
   19.5692   68.7503   -3.3123 C   0  0  0  0  0  0  0  0  0  0  0  0
   17.8414   70.1995   -4.1418 O   0  0  0  0  0  0  0  0  0  0  0  0
   15.9292   68.5153   -2.5614 O   0  0  0  0  0  0  0  0  0  0  0  0
   15.5994   67.5683   -5.0973 O   0  0  0  0  0  0  0  0  0  0  0  0
   17.1038   68.1231   -3.2698 C   0  0  1  0  0  0  0  0  0  0  0  0
   16.8478   68.1393   -4.7623 C   0  0  2  0  0  0  0  0  0  0  0  0
   18.1383   69.2306   -3.1125 C   0  0  1  0  0  0  0  0  0  0  0  0
   16.9150   69.6240   -5.0775 C   0  0  2  0  0  0  0  0  0  0  0  0
   15.2541   67.8233   -2.6470 H   0  0  0  0  0  0  0  0  0  0  0  0
   15.6065   66.6235   -4.8781 H   0  0  0  0  0  0  0  0  0  0  0  0
   15.5577   71.2358   -6.9584 O   0  0  0  0  0  0  0  0  0  0  0  0
   18.7918   70.5353  -10.1663 O   0  0  0  0  0  0  0  0  0  0  0  0
   17.3799   69.8802   -6.4115 N   0  0  0  0  0  0  0  0  0  0  0  0
   17.1692   70.8858   -8.5541 N   0  0  0  0  0  0  0  0  0  0  0  0
   16.6227   70.7032   -7.2774 C   0  0  0  0  0  0  0  0  0  0  0  0
   18.5745   69.3184   -6.8489 C   0  0  0  0  0  0  0  0  0  0  0  0
   19.0813   69.5013   -8.0699 C   0  0  0  0  0  0  0  0  0  0  0  0
   18.3520   70.3479   -9.0361 C   0  0  0  0  0  0  0  0  0  0  0  0
   16.6589   71.4552   -9.1747 H   0  0  0  0  0  0  0  0  0  0  0  0
   22.0627   70.7824   -1.3864 O   0  0  0  0  0  0  0  0  0  0  0  0
   23.1319   71.6843   -2.1965 P   0  0  2  0  0  0  0  0  0  0  0  0
   24.3714   70.6709   -2.4292 O   0  0  0  0  0  0  0  0  0  0  0  0
   23.5012   72.9668   -1.5091 O   0  0  0  0  0  0  0  0  0  0  0  0
   22.4800   71.8739   -3.6608 O   0  0  0  0  0  0  0  0  0  0  0  0
   22.9672   74.0286   -4.5189 O   0  0  0  0  0  0  0  0  0  0  0  0
   20.2946   72.7600   -7.3996 O   0  0  0  0  0  0  0  0  0  0  0  0
   23.0892   72.9368   -8.0377 O   0  0  0  0  0  0  0  0  0  0  0  0
   19.8512   72.0829   -4.6204 O   0  0  0  0  0  0  0  0  0  0  0  0
   21.3419   72.6096   -6.4374 C   0  0  1  0  0  0  0  0  0  0  0  0
   22.5136   73.4976   -6.8610 C   0  0  1  0  0  0  0  0  0  0  0  0
   20.8209   73.0263   -5.0633 C   0  0  2  0  0  0  0  0  0  0  0  0
   23.5645   73.5969   -5.7471 C   0  0  1  0  0  0  0  0  0  0  0  0
   21.9532   73.1424   -4.0412 C   0  0  1  0  0  0  0  0  0  0  0  0
   20.6188   72.4966   -8.2743 H   0  0  0  0  0  0  0  0  0  0  0  0
   22.4151   72.8792   -8.7330 H   0  0  0  0  0  0  0  0  0  0  0  0
   19.1397   72.0189   -5.2757 H   0  0  0  0  0  0  0  0  0  0  0  0
   25.4337   74.0818   -7.1542 O   0  0  0  0  0  0  0  0  0  0  0  0
   24.6638   74.6014   -6.0858 C   0  0  0  0  0  0  0  0  0  0  0  0
   26.1371   74.7107   -7.3808 H   0  0  0  0  0  0  0  0  0  0  0  0
 25 28  1  0
 25 24  1  0
 25 26  1  6
 25 27  2  0
  1  4  1  0
  1 24  1  0
  1  2  1  1
  1  3  2  0
  6 11  1  0
  6 12  1  0
 29 36  1  0
 29 37  1  0
  9  7  1  1
  7 13  1  0
 10  8  1  1
  8 14  1  0
 37 28  1  6
  4  5  1  0
 33 30  1  6
 30 38  1  0
 34 31  1  6
 31 39  1  0
 35 32  1  1
 32 40  1  0
 41 42  1  0
 41 43  1  0
 15 19  2  0
 16 22  2  0
 12 17  1  6
 17 19  1  0
 17 20  1  0
 18 19  1  0
 18 22  1  0
 18 23  1  0
  9 10  1  0
  9 11  1  0
 10 12  1  0
 11  5  1  6
 33 34  1  0
 33 35  1  0
 34 36  1  0
 35 37  1  0
 36 42  1  6
 20 21  2  0
 21 22  1  0
M  CHG  2   2  -1  26  -1
M  END
>  <COMPND>  (122) 
    8629 

>  <AUTHOR>  (122) 
    GENERATED BY OPEN BABEL 3.1.1

>  <MASTER>  (122) 
        0    0    0    0    0    0    0    0   58    0   58    0

>  <minimizedAffinity>  (122) 
-8.69544

>  <CNNscore>  (122) 
0.6273611188

>  <CNNaffinity>  (122) 
4.4741535187

>  <CNN_VS>  (122) 
2.8069100380

>  <CNNaffinity_variance>  (122) 
0.6748883128

$$$$
123
     RDKit          3D

 43 45  0  0  0  0  0  0  0  0999 V2000
   21.4381   70.9403   -3.0808 P   0  0  2  0  0  0  0  0  0  0  0  0
   22.9751   70.5764   -3.4310 O   0  0  0  0  0  0  0  0  0  0  0  0
   21.1189   70.9998   -1.6159 O   0  0  0  0  0  0  0  0  0  0  0  0
   20.5802   69.8742   -3.9441 O   0  0  0  0  0  0  0  0  0  0  0  0
   19.8404   68.8832   -3.2523 C   0  0  0  0  0  0  0  0  0  0  0  0
   18.0977   70.3301   -4.0544 O   0  0  0  0  0  0  0  0  0  0  0  0
   16.2431   68.7610   -2.2968 O   0  0  0  0  0  0  0  0  0  0  0  0
   15.7571   67.7070   -4.7645 O   0  0  0  0  0  0  0  0  0  0  0  0
   17.3696   68.3119   -3.0482 C   0  0  1  0  0  0  0  0  0  0  0  0
   17.0326   68.2657   -4.5240 C   0  0  2  0  0  0  0  0  0  0  0  0
   18.4320   69.4028   -2.9985 C   0  0  1  0  0  0  0  0  0  0  0  0
   17.1108   69.7327   -4.9111 C   0  0  2  0  0  0  0  0  0  0  0  0
   15.5513   68.0805   -2.3137 H   0  0  0  0  0  0  0  0  0  0  0  0
   15.7583   66.7732   -4.5022 H   0  0  0  0  0  0  0  0  0  0  0  0
   15.6929   71.3003   -6.7847 O   0  0  0  0  0  0  0  0  0  0  0  0
   18.7230   70.3704  -10.1306 O   0  0  0  0  0  0  0  0  0  0  0  0
   17.5068   69.9179   -6.2787 N   0  0  0  0  0  0  0  0  0  0  0  0
   17.2029   70.8361   -8.4491 N   0  0  0  0  0  0  0  0  0  0  0  0
   16.7241   70.7243   -7.1376 C   0  0  0  0  0  0  0  0  0  0  0  0
   18.6599   69.3040   -6.7554 C   0  0  0  0  0  0  0  0  0  0  0  0
   19.1022   69.4196   -8.0093 C   0  0  0  0  0  0  0  0  0  0  0  0
   18.3424   70.2444   -8.9708 C   0  0  0  0  0  0  0  0  0  0  0  0
   16.6737   71.3926   -9.0656 H   0  0  0  0  0  0  0  0  0  0  0  0
   21.2022   72.3268   -3.8776 O   0  0  0  0  0  0  0  0  0  0  0  0
   22.0873   73.6778   -3.9422 P   0  0  2  0  0  0  0  0  0  0  0  0
   21.4759   74.4613   -5.2189 O   0  0  0  0  0  0  0  0  0  0  0  0
   23.5681   73.4406   -4.0122 O   0  0  0  0  0  0  0  0  0  0  0  0
   21.6079   74.5417   -2.6659 O   0  0  0  0  0  0  0  0  0  0  0  0
   19.2732   74.2739   -2.3589 O   0  0  0  0  0  0  0  0  0  0  0  0
   19.9845   77.1779    0.4893 O   0  0  0  0  0  0  0  0  0  0  0  0
   19.4214   74.4865    1.3183 O   0  0  0  0  0  0  0  0  0  0  0  0
   21.3797   77.2690   -2.0455 O   0  0  0  0  0  0  0  0  0  0  0  0
   20.2875   76.0227   -0.2976 C   0  0  1  0  0  0  0  0  0  0  0  0
   19.2274   74.9569   -0.0126 C   0  0  1  0  0  0  0  0  0  0  0  0
   20.2780   76.4088   -1.7755 C   0  0  2  0  0  0  0  0  0  0  0  0
   19.3280   73.7950   -1.0101 C   0  0  1  0  0  0  0  0  0  0  0  0
   20.3324   75.1773   -2.6814 C   0  0  1  0  0  0  0  0  0  0  0  0
   19.9894   76.9396    1.4288 H   0  0  0  0  0  0  0  0  0  0  0  0
   19.3560   75.2300    1.9381 H   0  0  0  0  0  0  0  0  0  0  0  0
   21.3337   78.0448   -1.4659 H   0  0  0  0  0  0  0  0  0  0  0  0
   18.6402   71.7169   -0.0523 O   0  0  0  0  0  0  0  0  0  0  0  0
   18.1832   72.7980   -0.8440 C   0  0  0  0  0  0  0  0  0  0  0  0
   17.9219   71.0744    0.0621 H   0  0  0  0  0  0  0  0  0  0  0  0
 25 28  1  0
 25 24  1  0
 25 26  1  6
 25 27  2  0
  1  4  1  0
  1 24  1  0
  1  2  1  1
  1  3  2  0
  6 11  1  0
  6 12  1  0
 29 36  1  0
 29 37  1  0
  9  7  1  1
  7 13  1  0
 10  8  1  1
  8 14  1  0
 37 28  1  1
  4  5  1  0
 33 30  1  1
 30 38  1  0
 34 31  1  1
 31 39  1  0
 35 32  1  1
 32 40  1  0
 41 42  1  0
 41 43  1  0
 15 19  2  0
 16 22  2  0
 12 17  1  6
 17 19  1  0
 17 20  1  0
 18 19  1  0
 18 22  1  0
 18 23  1  0
  9 10  1  0
  9 11  1  0
 10 12  1  0
 11  5  1  6
 33 34  1  0
 33 35  1  0
 34 36  1  0
 35 37  1  0
 36 42  1  1
 20 21  2  0
 21 22  1  0
M  CHG  2   2  -1  26  -1
M  END
>  <COMPND>  (123) 
    8629 

>  <AUTHOR>  (123) 
    GENERATED BY OPEN BABEL 3.1.1

>  <MASTER>  (123) 
        0    0    0    0    0    0    0    0   58    0   58    0

>  <minimizedAffinity>  (123) 
-6.88757

>  <CNNscore>  (123) 
0.6120913625

>  <CNNaffinity>  (123) 
4.4112701416

>  <CNN_VS>  (123) 
2.7001004219

>  <CNNaffinity_variance>  (123) 
0.1020176783

$$$$
124
     RDKit          3D

 43 45  0  0  0  0  0  0  0  0999 V2000
   20.5937   70.6255   -1.4144 P   0  0  2  0  0  0  0  0  0  0  0  0
   20.1652   69.2710   -0.6405 O   0  0  0  0  0  0  0  0  0  0  0  0
   19.8166   71.8494   -1.0275 O   0  0  0  0  0  0  0  0  0  0  0  0
   20.5276   70.2166   -2.9785 O   0  0  0  0  0  0  0  0  0  0  0  0
   19.6696   69.1571   -3.3647 C   0  0  0  0  0  0  0  0  0  0  0  0
   17.8845   70.4857   -4.2715 O   0  0  0  0  0  0  0  0  0  0  0  0
   16.0461   68.8439   -2.5641 O   0  0  0  0  0  0  0  0  0  0  0  0
   15.7317   67.7188   -5.0282 O   0  0  0  0  0  0  0  0  0  0  0  0
   17.2288   68.4473   -3.2564 C   0  0  1  0  0  0  0  0  0  0  0  0
   16.9611   68.3548   -4.7441 C   0  0  2  0  0  0  0  0  0  0  0  0
   18.2238   69.5987   -3.1832 C   0  0  1  0  0  0  0  0  0  0  0  0
   16.9725   69.8166   -5.1578 C   0  0  2  0  0  0  0  0  0  0  0  0
   15.3957   68.1243   -2.5969 H   0  0  0  0  0  0  0  0  0  0  0  0
   15.7745   66.7916   -4.7469 H   0  0  0  0  0  0  0  0  0  0  0  0
   15.6052   71.3527   -7.0940 O   0  0  0  0  0  0  0  0  0  0  0  0
   18.7740   70.4473  -10.3159 O   0  0  0  0  0  0  0  0  0  0  0  0
   17.4179   69.9996   -6.5104 N   0  0  0  0  0  0  0  0  0  0  0  0
   17.1842   70.9008   -8.6966 N   0  0  0  0  0  0  0  0  0  0  0  0
   16.6572   70.7896   -7.4036 C   0  0  0  0  0  0  0  0  0  0  0  0
   18.5970   69.3996   -6.9389 C   0  0  0  0  0  0  0  0  0  0  0  0
   19.0852   69.5144   -8.1757 C   0  0  0  0  0  0  0  0  0  0  0  0
   18.3511   70.3225   -9.1707 C   0  0  0  0  0  0  0  0  0  0  0  0
   16.6711   71.4460   -9.3363 H   0  0  0  0  0  0  0  0  0  0  0  0
   22.1822   70.7195   -1.1303 O   0  0  0  0  0  0  0  0  0  0  0  0
   23.2729   71.8335   -1.5571 P   0  0  2  0  0  0  0  0  0  0  0  0
   24.6172   70.9651   -1.7939 O   0  0  0  0  0  0  0  0  0  0  0  0
   23.4257   72.9548   -0.5705 O   0  0  0  0  0  0  0  0  0  0  0  0
   22.8233   72.3000   -3.0354 O   0  0  0  0  0  0  0  0  0  0  0  0
   23.5762   73.8309   -4.6804 O   0  0  0  0  0  0  0  0  0  0  0  0
   19.5737   74.8442   -4.6188 O   0  0  0  0  0  0  0  0  0  0  0  0
   20.6373   73.4039   -6.8643 O   0  0  0  0  0  0  0  0  0  0  0  0
   20.9320   74.1754   -2.1516 O   0  0  0  0  0  0  0  0  0  0  0  0
   20.6954   73.9606   -4.5389 C   0  0  1  0  0  0  0  0  0  0  0  0
   21.4491   74.0209   -5.8690 C   0  0  1  0  0  0  0  0  0  0  0  0
   21.5983   74.4029   -3.3889 C   0  0  2  0  0  0  0  0  0  0  0  0
   22.8056   73.3102   -5.7698 C   0  0  1  0  0  0  0  0  0  0  0  0
   22.9408   73.6699   -3.4107 C   0  0  1  0  0  0  0  0  0  0  0  0
   18.9961   74.5686   -5.3468 H   0  0  0  0  0  0  0  0  0  0  0  0
   19.7836   73.8618   -6.9165 H   0  0  0  0  0  0  0  0  0  0  0  0
   20.0838   74.6449   -2.1502 H   0  0  0  0  0  0  0  0  0  0  0  0
   23.1036   72.6679   -8.0518 O   0  0  0  0  0  0  0  0  0  0  0  0
   23.6411   73.4933   -7.0349 C   0  0  0  0  0  0  0  0  0  0  0  0
   23.6252   72.7743   -8.8632 H   0  0  0  0  0  0  0  0  0  0  0  0
 25 28  1  0
 25 24  1  0
 25 26  1  6
 25 27  2  0
  1  4  1  0
  1 24  1  0
  1  2  1  1
  1  3  2  0
  6 11  1  0
  6 12  1  0
 29 36  1  0
 29 37  1  0
  9  7  1  1
  7 13  1  0
 10  8  1  1
  8 14  1  0
 37 28  1  6
  4  5  1  0
 33 30  1  6
 30 38  1  0
 34 31  1  6
 31 39  1  0
 35 32  1  1
 32 40  1  0
 41 42  1  0
 41 43  1  0
 15 19  2  0
 16 22  2  0
 12 17  1  6
 17 19  1  0
 17 20  1  0
 18 19  1  0
 18 22  1  0
 18 23  1  0
  9 10  1  0
  9 11  1  0
 10 12  1  0
 11  5  1  6
 33 34  1  0
 33 35  1  0
 34 36  1  0
 35 37  1  0
 36 42  1  6
 20 21  2  0
 21 22  1  0
M  CHG  2   2  -1  26  -1
M  END
>  <COMPND>  (124) 
    8629 

>  <AUTHOR>  (124) 
    GENERATED BY OPEN BABEL 3.1.1

>  <MASTER>  (124) 
        0    0    0    0    0    0    0    0   58    0   58    0

>  <minimizedAffinity>  (124) 
-8.16723

>  <CNNscore>  (124) 
0.6038839817

>  <CNNaffinity>  (124) 
4.3862786293

>  <CNN_VS>  (124) 
2.6488034725

>  <CNNaffinity_variance>  (124) 
0.5617715716

$$$$
125
     RDKit          3D

 43 45  0  0  0  0  0  0  0  0999 V2000
   21.6740   71.4337   -3.3895 P   0  0  2  0  0  0  0  0  0  0  0  0
   23.0075   70.5669   -3.0931 O   0  0  0  0  0  0  0  0  0  0  0  0
   21.1079   72.1525   -2.2002 O   0  0  0  0  0  0  0  0  0  0  0  0
   20.6801   70.3822   -4.1136 O   0  0  0  0  0  0  0  0  0  0  0  0
   20.1129   69.3424   -3.3358 C   0  0  0  0  0  0  0  0  0  0  0  0
   18.1684   70.4969   -4.1480 O   0  0  0  0  0  0  0  0  0  0  0  0
   16.5859   68.7423   -2.3019 O   0  0  0  0  0  0  0  0  0  0  0  0
   16.2164   67.5436   -4.7233 O   0  0  0  0  0  0  0  0  0  0  0  0
   17.7529   68.4322   -3.0617 C   0  0  1  0  0  0  0  0  0  0  0  0
   17.4025   68.2866   -4.5278 C   0  0  2  0  0  0  0  0  0  0  0  0
   18.6488   69.6646   -3.0697 C   0  0  1  0  0  0  0  0  0  0  0  0
   17.2635   69.7352   -4.9640 C   0  0  2  0  0  0  0  0  0  0  0  0
   15.9985   67.9700   -2.2822 H   0  0  0  0  0  0  0  0  0  0  0  0
   16.3555   66.6294   -4.4309 H   0  0  0  0  0  0  0  0  0  0  0  0
   15.7574   71.2847   -6.7829 O   0  0  0  0  0  0  0  0  0  0  0  0
   18.6760   70.3984  -10.2379 O   0  0  0  0  0  0  0  0  0  0  0  0
   17.6070   69.9268   -6.3448 N   0  0  0  0  0  0  0  0  0  0  0  0
   17.2120   70.8423   -8.5017 N   0  0  0  0  0  0  0  0  0  0  0  0
   16.7827   70.7230   -7.1737 C   0  0  0  0  0  0  0  0  0  0  0  0
   18.7502   69.3288   -6.8639 C   0  0  0  0  0  0  0  0  0  0  0  0
   19.1450   69.4514   -8.1329 C   0  0  0  0  0  0  0  0  0  0  0  0
   18.3396   70.2664   -9.0652 C   0  0  0  0  0  0  0  0  0  0  0  0
   16.6531   71.3920   -9.0978 H   0  0  0  0  0  0  0  0  0  0  0  0
   22.1300   72.3981   -4.6041 O   0  0  0  0  0  0  0  0  0  0  0  0
   21.2602   73.2681   -5.6526 P   0  0  2  0  0  0  0  0  0  0  0  0
   20.7513   74.5203   -4.7635 O   0  0  0  0  0  0  0  0  0  0  0  0
   20.1606   72.4997   -6.3267 O   0  0  0  0  0  0  0  0  0  0  0  0
   22.3498   73.9006   -6.6614 O   0  0  0  0  0  0  0  0  0  0  0  0
   24.1336   75.4018   -6.2357 O   0  0  0  0  0  0  0  0  0  0  0  0
   22.9839   76.7808   -9.9542 O   0  0  0  0  0  0  0  0  0  0  0  0
   25.4377   75.3134   -9.6825 O   0  0  0  0  0  0  0  0  0  0  0  0
   20.9804   75.9174   -8.0515 O   0  0  0  0  0  0  0  0  0  0  0  0
   23.2141   75.7948   -8.9442 C   0  0  1  0  0  0  0  0  0  0  0  0
   24.6988   75.8231   -8.5759 C   0  0  1  0  0  0  0  0  0  0  0  0
   22.3516   76.1177   -7.7256 C   0  0  2  0  0  0  0  0  0  0  0  0
   24.9739   74.9867   -7.3190 C   0  0  1  0  0  0  0  0  0  0  0  0
   22.7394   75.2639   -6.5169 C   0  0  1  0  0  0  0  0  0  0  0  0
   23.5282   76.5813  -10.7310 H   0  0  0  0  0  0  0  0  0  0  0  0
   25.2547   75.8500  -10.4698 H   0  0  0  0  0  0  0  0  0  0  0  0
   20.7473   76.4635   -8.8179 H   0  0  0  0  0  0  0  0  0  0  0  0
   27.2714   74.5674   -7.8235 O   0  0  0  0  0  0  0  0  0  0  0  0
   26.4180   75.1279   -6.8428 C   0  0  0  0  0  0  0  0  0  0  0  0
   28.1939   74.6504   -7.5341 H   0  0  0  0  0  0  0  0  0  0  0  0
 25 28  1  0
 25 24  1  0
 25 26  1  1
 25 27  2  0
  1  4  1  0
  1 24  1  0
  1  2  1  1
  1  3  2  0
  6 11  1  0
  6 12  1  0
 29 36  1  0
 29 37  1  0
  9  7  1  1
  7 13  1  0
 10  8  1  1
  8 14  1  0
 37 28  1  6
  4  5  1  0
 33 30  1  6
 30 38  1  0
 34 31  1  6
 31 39  1  0
 35 32  1  6
 32 40  1  0
 41 42  1  0
 41 43  1  0
 15 19  2  0
 16 22  2  0
 12 17  1  6
 17 19  1  0
 17 20  1  0
 18 19  1  0
 18 22  1  0
 18 23  1  0
  9 10  1  0
  9 11  1  0
 10 12  1  0
 11  5  1  6
 33 34  1  0
 33 35  1  0
 34 36  1  0
 35 37  1  0
 36 42  1  1
 20 21  2  0
 21 22  1  0
M  CHG  2   2  -1  26  -1
M  END
>  <COMPND>  (125) 
    8629 

>  <AUTHOR>  (125) 
    GENERATED BY OPEN BABEL 3.1.1

>  <MASTER>  (125) 
        0    0    0    0    0    0    0    0   58    0   58    0

>  <minimizedAffinity>  (125) 
-7.48918

>  <CNNscore>  (125) 
0.5619292259

>  <CNNaffinity>  (125) 
4.4080944061

>  <CNN_VS>  (125) 
2.4770371914

>  <CNNaffinity_variance>  (125) 
0.3108090758

$$$$
126
     RDKit          3D

 43 45  0  0  0  0  0  0  0  0999 V2000
   22.2023   73.2964   -6.2092 P   0  0  2  0  0  0  0  0  0  0  0  0
   22.6505   74.2590   -7.4299 O   0  0  0  0  0  0  0  0  0  0  0  0
   23.3262   72.8005   -5.3477 O   0  0  0  0  0  0  0  0  0  0  0  0
   21.3080   72.1533   -6.9243 O   0  0  0  0  0  0  0  0  0  0  0  0
   19.9573   72.4476   -7.2353 C   0  0  0  0  0  0  0  0  0  0  0  0
   19.6260   70.0943   -6.8801 O   0  0  0  0  0  0  0  0  0  0  0  0
   17.2664   70.3401   -8.7138 O   0  0  0  0  0  0  0  0  0  0  0  0
   16.1032   70.3231   -6.2474 O   0  0  0  0  0  0  0  0  0  0  0  0
   17.7621   71.2697   -7.7518 C   0  0  1  0  0  0  0  0  0  0  0  0
   17.4279   70.8042   -6.3500 C   0  0  2  0  0  0  0  0  0  0  0  0
   19.2834   71.1872   -7.7602 C   0  0  1  0  0  0  0  0  0  0  0  0
   18.4641   69.7164   -6.1238 C   0  0  2  0  0  0  0  0  0  0  0  0
   16.2965   70.3749   -8.7269 H   0  0  0  0  0  0  0  0  0  0  0  0
   15.4817   71.0521   -6.3990 H   0  0  0  0  0  0  0  0  0  0  0  0
   16.9646   68.2866   -4.2042 O   0  0  0  0  0  0  0  0  0  0  0  0
   19.9611   69.2883   -0.8489 O   0  0  0  0  0  0  0  0  0  0  0  0
   18.8294   69.5869   -4.7414 N   0  0  0  0  0  0  0  0  0  0  0  0
   18.4579   68.7864   -2.5351 N   0  0  0  0  0  0  0  0  0  0  0  0
   18.0066   68.8479   -3.8597 C   0  0  0  0  0  0  0  0  0  0  0  0
   19.9923   70.1885   -4.2726 C   0  0  0  0  0  0  0  0  0  0  0  0
   20.4080   70.1215   -3.0061 C   0  0  0  0  0  0  0  0  0  0  0  0
   19.6057   69.3684   -2.0207 C   0  0  0  0  0  0  0  0  0  0  0  0
   17.9006   68.2772   -1.9028 H   0  0  0  0  0  0  0  0  0  0  0  0
   21.0999   74.1861   -5.4307 O   0  0  0  0  0  0  0  0  0  0  0  0
   21.2673   75.3751   -4.3485 P   0  0  2  0  0  0  0  0  0  0  0  0
   20.2136   76.4919   -4.8584 O   0  0  0  0  0  0  0  0  0  0  0  0
   22.6746   75.8752   -4.1964 O   0  0  0  0  0  0  0  0  0  0  0  0
   20.6157   74.7887   -2.9933 O   0  0  0  0  0  0  0  0  0  0  0  0
   20.3668   75.3855   -0.7133 O   0  0  0  0  0  0  0  0  0  0  0  0
   21.9983   71.6224   -0.2359 O   0  0  0  0  0  0  0  0  0  0  0  0
   19.2200   72.0485    0.3536 O   0  0  0  0  0  0  0  0  0  0  0  0
   22.9381   73.3442   -2.3647 O   0  0  0  0  0  0  0  0  0  0  0  0
   21.1953   72.6240   -0.8662 C   0  0  1  0  0  0  0  0  0  0  0  0
   20.1510   73.1063    0.1425 C   0  0  1  0  0  0  0  0  0  0  0  0
   22.0925   73.7796   -1.3055 C   0  0  2  0  0  0  0  0  0  0  0  0
   19.4280   74.3610   -0.3657 C   0  0  1  0  0  0  0  0  0  0  0  0
   21.2738   74.9944   -1.7459 C   0  0  1  0  0  0  0  0  0  0  0  0
   21.4348   70.8855    0.0450 H   0  0  0  0  0  0  0  0  0  0  0  0
   19.6894   71.2621    0.6738 H   0  0  0  0  0  0  0  0  0  0  0  0
   23.4512   72.5750   -2.0732 H   0  0  0  0  0  0  0  0  0  0  0  0
   19.2501   75.2212    1.8563 O   0  0  0  0  0  0  0  0  0  0  0  0
   18.4950   74.9504    0.6898 C   0  0  0  0  0  0  0  0  0  0  0  0
   18.6692   75.5971    2.5367 H   0  0  0  0  0  0  0  0  0  0  0  0
 25 28  1  0
 25 24  1  0
 25 26  1  6
 25 27  2  0
  1  4  1  0
  1 24  1  0
  1  2  1  6
  1  3  2  0
  6 11  1  0
  6 12  1  0
 29 36  1  0
 29 37  1  0
  9  7  1  6
  7 13  1  0
 10  8  1  6
  8 14  1  0
 37 28  1  6
  4  5  1  0
 33 30  1  1
 30 38  1  0
 34 31  1  6
 31 39  1  0
 35 32  1  6
 32 40  1  0
 41 42  1  0
 41 43  1  0
 15 19  2  0
 16 22  2  0
 12 17  1  1
 17 19  1  0
 17 20  1  0
 18 19  1  0
 18 22  1  0
 18 23  1  0
  9 10  1  0
  9 11  1  0
 10 12  1  0
 11  5  1  1
 33 34  1  0
 33 35  1  0
 34 36  1  0
 35 37  1  0
 36 42  1  1
 20 21  2  0
 21 22  1  0
M  CHG  2   2  -1  26  -1
M  END
>  <COMPND>  (126) 
    8629 

>  <AUTHOR>  (126) 
    GENERATED BY OPEN BABEL 3.1.1

>  <MASTER>  (126) 
        0    0    0    0    0    0    0    0   58    0   58    0

>  <minimizedAffinity>  (126) 
-6.96179

>  <CNNscore>  (126) 
0.5521851778

>  <CNNaffinity>  (126) 
4.1021723747

>  <CNN_VS>  (126) 
2.2651588917

>  <CNNaffinity_variance>  (126) 
0.4775969982

$$$$
127
     RDKit          3D

 43 45  0  0  0  0  0  0  0  0999 V2000
   21.8424   71.0661   -2.1671 P   0  0  2  0  0  0  0  0  0  0  0  0
   23.3864   70.9227   -2.6286 O   0  0  0  0  0  0  0  0  0  0  0  0
   21.4919   70.3503   -0.8958 O   0  0  0  0  0  0  0  0  0  0  0  0
   21.0027   70.6233   -3.4773 O   0  0  0  0  0  0  0  0  0  0  0  0
   20.2415   69.4295   -3.4209 C   0  0  0  0  0  0  0  0  0  0  0  0
   18.2957   70.5981   -4.2095 O   0  0  0  0  0  0  0  0  0  0  0  0
   16.7322   68.9081   -2.2885 O   0  0  0  0  0  0  0  0  0  0  0  0
   16.2841   67.6655   -4.6742 O   0  0  0  0  0  0  0  0  0  0  0  0
   17.8750   68.5634   -3.0699 C   0  0  1  0  0  0  0  0  0  0  0  0
   17.4861   68.3930   -4.5236 C   0  0  2  0  0  0  0  0  0  0  0  0
   18.7896   69.7807   -3.1259 C   0  0  1  0  0  0  0  0  0  0  0  0
   17.3591   69.8343   -4.9868 C   0  0  2  0  0  0  0  0  0  0  0  0
   16.1334   68.1460   -2.2381 H   0  0  0  0  0  0  0  0  0  0  0  0
   16.4161   66.7554   -4.3660 H   0  0  0  0  0  0  0  0  0  0  0  0
   15.8153   71.3440   -6.8076 O   0  0  0  0  0  0  0  0  0  0  0  0
   18.6516   70.3661  -10.3062 O   0  0  0  0  0  0  0  0  0  0  0  0
   17.6712   69.9916   -6.3794 N   0  0  0  0  0  0  0  0  0  0  0  0
   17.2289   70.8560   -8.5482 N   0  0  0  0  0  0  0  0  0  0  0  0
   16.8300   70.7700   -7.2082 C   0  0  0  0  0  0  0  0  0  0  0  0
   18.8007   69.3779   -6.9100 C   0  0  0  0  0  0  0  0  0  0  0  0
   19.1665   69.4687   -8.1903 C   0  0  0  0  0  0  0  0  0  0  0  0
   18.3419   70.2634   -9.1233 C   0  0  0  0  0  0  0  0  0  0  0  0
   16.6578   71.3928   -9.1444 H   0  0  0  0  0  0  0  0  0  0  0  0
   21.6244   72.6671   -2.1198 O   0  0  0  0  0  0  0  0  0  0  0  0
   20.2757   73.5522   -2.0179 P   0  0  2  0  0  0  0  0  0  0  0  0
   20.8340   75.0583   -1.8243 O   0  0  0  0  0  0  0  0  0  0  0  0
   19.3238   73.1023   -0.9476 O   0  0  0  0  0  0  0  0  0  0  0  0
   19.6613   73.5339   -3.5103 O   0  0  0  0  0  0  0  0  0  0  0  0
   21.3597   74.5207   -4.8363 O   0  0  0  0  0  0  0  0  0  0  0  0
   18.6295   73.6426   -7.8072 O   0  0  0  0  0  0  0  0  0  0  0  0
   21.0409   72.0972   -7.5957 O   0  0  0  0  0  0  0  0  0  0  0  0
   17.7063   74.5816   -5.2293 O   0  0  0  0  0  0  0  0  0  0  0  0
   19.3339   73.4303   -6.5808 C   0  0  1  0  0  0  0  0  0  0  0  0
   20.8266   73.3209   -6.8979 C   0  0  1  0  0  0  0  0  0  0  0  0
   19.0683   74.6060   -5.6425 C   0  0  2  0  0  0  0  0  0  0  0  0
   21.6696   73.3597   -5.6161 C   0  0  1  0  0  0  0  0  0  0  0  0
   19.9927   74.5763   -4.4240 C   0  0  1  0  0  0  0  0  0  0  0  0
   18.7935   72.8993   -8.4073 H   0  0  0  0  0  0  0  0  0  0  0  0
   20.5026   72.0852   -8.4027 H   0  0  0  0  0  0  0  0  0  0  0  0
   17.1313   74.6011   -6.0096 H   0  0  0  0  0  0  0  0  0  0  0  0
   23.8385   72.5731   -4.9949 O   0  0  0  0  0  0  0  0  0  0  0  0
   23.1659   73.4108   -5.9169 C   0  0  0  0  0  0  0  0  0  0  0  0
   24.7919   72.5954   -5.1745 H   0  0  0  0  0  0  0  0  0  0  0  0
 25 28  1  0
 25 24  1  0
 25 26  1  1
 25 27  2  0
  1  4  1  0
  1 24  1  0
  1  2  1  6
  1  3  2  0
  6 11  1  0
  6 12  1  0
 29 36  1  0
 29 37  1  0
  9  7  1  1
  7 13  1  0
 10  8  1  1
  8 14  1  0
 37 28  1  1
  4  5  1  0
 33 30  1  6
 30 38  1  0
 34 31  1  1
 31 39  1  0
 35 32  1  1
 32 40  1  0
 41 42  1  0
 41 43  1  0
 15 19  2  0
 16 22  2  0
 12 17  1  6
 17 19  1  0
 17 20  1  0
 18 19  1  0
 18 22  1  0
 18 23  1  0
  9 10  1  0
  9 11  1  0
 10 12  1  0
 11  5  1  6
 33 34  1  0
 33 35  1  0
 34 36  1  0
 35 37  1  0
 36 42  1  6
 20 21  2  0
 21 22  1  0
M  CHG  2   2  -1  26  -1
M  END
>  <COMPND>  (127) 
    8629 

>  <AUTHOR>  (127) 
    GENERATED BY OPEN BABEL 3.1.1

>  <MASTER>  (127) 
        0    0    0    0    0    0    0    0   58    0   58    0

>  <minimizedAffinity>  (127) 
-7.53711

>  <CNNscore>  (127) 
0.5424252748

>  <CNNaffinity>  (127) 
4.2508172989

>  <CNN_VS>  (127) 
2.3057508469

>  <CNNaffinity_variance>  (127) 
0.8108657002

$$$$
128
     RDKit          3D

 43 45  0  0  0  0  0  0  0  0999 V2000
   21.4140   71.3287   -1.7539 P   0  0  2  0  0  0  0  0  0  0  0  0
   22.7326   70.8682   -0.9374 O   0  0  0  0  0  0  0  0  0  0  0  0
   20.6453   72.4571   -1.1317 O   0  0  0  0  0  0  0  0  0  0  0  0
   20.5907   69.9527   -1.9699 O   0  0  0  0  0  0  0  0  0  0  0  0
   19.9513   69.7358   -3.2157 C   0  0  0  0  0  0  0  0  0  0  0  0
   17.8885   70.5656   -4.1269 O   0  0  0  0  0  0  0  0  0  0  0  0
   16.5196   68.5831   -2.3418 O   0  0  0  0  0  0  0  0  0  0  0  0
   16.4601   67.3388   -4.7677 O   0  0  0  0  0  0  0  0  0  0  0  0
   17.7556   68.4620   -3.0440 C   0  0  1  0  0  0  0  0  0  0  0  0
   17.5024   68.2612   -4.5235 C   0  0  2  0  0  0  0  0  0  0  0  0
   18.4437   69.8211   -3.0206 C   0  0  1  0  0  0  0  0  0  0  0  0
   17.1558   69.6689   -4.9778 C   0  0  2  0  0  0  0  0  0  0  0  0
   16.0621   67.7271   -2.3431 H   0  0  0  0  0  0  0  0  0  0  0  0
   16.7287   66.4586   -4.4616 H   0  0  0  0  0  0  0  0  0  0  0  0
   15.7650   71.3927   -6.7305 O   0  0  0  0  0  0  0  0  0  0  0  0
   18.6789   70.5216  -10.1933 O   0  0  0  0  0  0  0  0  0  0  0  0
   17.5293   69.9115   -6.3427 N   0  0  0  0  0  0  0  0  0  0  0  0
   17.2171   70.9577   -8.4532 N   0  0  0  0  0  0  0  0  0  0  0  0
   16.7629   70.7947   -7.1383 C   0  0  0  0  0  0  0  0  0  0  0  0
   18.6446   69.2773   -6.8791 C   0  0  0  0  0  0  0  0  0  0  0  0
   19.0638   69.4425   -8.1354 C   0  0  0  0  0  0  0  0  0  0  0  0
   18.3188   70.3487   -9.0330 C   0  0  0  0  0  0  0  0  0  0  0  0
   16.6986   71.5680   -9.0262 H   0  0  0  0  0  0  0  0  0  0  0  0
   21.9919   71.6420   -3.2306 O   0  0  0  0  0  0  0  0  0  0  0  0
   22.6192   72.9920   -3.8607 P   0  0  2  0  0  0  0  0  0  0  0  0
   23.7653   72.4378   -4.8590 O   0  0  0  0  0  0  0  0  0  0  0  0
   23.1105   73.9770   -2.8398 O   0  0  0  0  0  0  0  0  0  0  0  0
   21.4672   73.5601   -4.8381 O   0  0  0  0  0  0  0  0  0  0  0  0
   19.2619   73.5599   -3.9703 O   0  0  0  0  0  0  0  0  0  0  0  0
   18.3942   74.0516   -7.9774 O   0  0  0  0  0  0  0  0  0  0  0  0
   18.0653   76.2622   -6.1737 O   0  0  0  0  0  0  0  0  0  0  0  0
   20.5523   72.2985   -7.1718 O   0  0  0  0  0  0  0  0  0  0  0  0
   19.1558   74.2212   -6.7788 C   0  0  1  0  0  0  0  0  0  0  0  0
   18.2717   74.9195   -5.7436 C   0  0  1  0  0  0  0  0  0  0  0  0
   19.5985   72.8504   -6.2705 C   0  0  2  0  0  0  0  0  0  0  0  0
   18.9227   74.8976   -4.3541 C   0  0  1  0  0  0  0  0  0  0  0  0
   20.1873   72.9337   -4.8611 C   0  0  1  0  0  0  0  0  0  0  0  0
   18.1104   74.9184   -8.3056 H   0  0  0  0  0  0  0  0  0  0  0  0
   17.6542   76.2619   -7.0524 H   0  0  0  0  0  0  0  0  0  0  0  0
   20.1674   72.2508   -8.0603 H   0  0  0  0  0  0  0  0  0  0  0  0
   16.6590   75.3683   -3.7517 O   0  0  0  0  0  0  0  0  0  0  0  0
   17.9904   75.4479   -3.2770 C   0  0  0  0  0  0  0  0  0  0  0  0
   16.0544   75.7149   -3.0763 H   0  0  0  0  0  0  0  0  0  0  0  0
 25 28  1  0
 25 24  1  0
 25 26  1  6
 25 27  2  0
  1  4  1  0
  1 24  1  0
  1  2  1  1
  1  3  2  0
  6 11  1  0
  6 12  1  0
 29 36  1  0
 29 37  1  0
  9  7  1  1
  7 13  1  0
 10  8  1  1
  8 14  1  0
 37 28  1  6
  4  5  1  0
 33 30  1  6
 30 38  1  0
 34 31  1  6
 31 39  1  0
 35 32  1  6
 32 40  1  0
 41 42  1  0
 41 43  1  0
 15 19  2  0
 16 22  2  0
 12 17  1  6
 17 19  1  0
 17 20  1  0
 18 19  1  0
 18 22  1  0
 18 23  1  0
  9 10  1  0
  9 11  1  0
 10 12  1  0
 11  5  1  6
 33 34  1  0
 33 35  1  0
 34 36  1  0
 35 37  1  0
 36 42  1  1
 20 21  2  0
 21 22  1  0
M  CHG  2   2  -1  26  -1
M  END
>  <COMPND>  (128) 
    8629 

>  <AUTHOR>  (128) 
    GENERATED BY OPEN BABEL 3.1.1

>  <MASTER>  (128) 
        0    0    0    0    0    0    0    0   58    0   58    0

>  <minimizedAffinity>  (128) 
-7.26009

>  <CNNscore>  (128) 
0.5408380032

>  <CNNaffinity>  (128) 
4.2936544418

>  <CNN_VS>  (128) 
2.3221714497

>  <CNNaffinity_variance>  (128) 
0.4126838148

$$$$
129
     RDKit          3D

 43 45  0  0  0  0  0  0  0  0999 V2000
   19.3996   73.9573   -6.6789 P   0  0  2  0  0  0  0  0  0  0  0  0
   18.8196   75.3904   -7.1555 O   0  0  0  0  0  0  0  0  0  0  0  0
   20.8920   73.8210   -6.7536 O   0  0  0  0  0  0  0  0  0  0  0  0
   18.5520   72.8870   -7.5471 O   0  0  0  0  0  0  0  0  0  0  0  0
   18.9439   71.5257   -7.5117 C   0  0  0  0  0  0  0  0  0  0  0  0
   17.8955   69.6238   -6.4836 O   0  0  0  0  0  0  0  0  0  0  0  0
   15.3131   70.6991   -7.5633 O   0  0  0  0  0  0  0  0  0  0  0  0
   15.2324   71.4724   -4.9495 O   0  0  0  0  0  0  0  0  0  0  0  0
   16.4435   71.4068   -7.0567 C   0  0  1  0  0  0  0  0  0  0  0  0
   16.5005   71.2953   -5.5474 C   0  0  2  0  0  0  0  0  0  0  0  0
   17.6977   70.6517   -7.4789 C   0  0  1  0  0  0  0  0  0  0  0  0
   17.0462   69.8905   -5.3555 C   0  0  2  0  0  0  0  0  0  0  0  0
   14.5000   71.1627   -7.3066 H   0  0  0  0  0  0  0  0  0  0  0  0
   14.9284   72.3812   -5.0990 H   0  0  0  0  0  0  0  0  0  0  0  0
   15.9369   69.5665   -2.7783 O   0  0  0  0  0  0  0  0  0  0  0  0
   20.0995   69.4097   -0.8063 O   0  0  0  0  0  0  0  0  0  0  0  0
   17.8169   69.7621   -4.1510 N   0  0  0  0  0  0  0  0  0  0  0  0
   18.0105   69.4885   -1.7985 N   0  0  0  0  0  0  0  0  0  0  0  0
   17.1623   69.6046   -2.9072 C   0  0  0  0  0  0  0  0  0  0  0  0
   19.2059   69.7926   -4.2104 C   0  0  0  0  0  0  0  0  0  0  0  0
   20.0004   69.6819   -3.1438 C   0  0  0  0  0  0  0  0  0  0  0  0
   19.3961   69.5142   -1.8064 C   0  0  0  0  0  0  0  0  0  0  0  0
   17.5767   69.3783   -0.9213 H   0  0  0  0  0  0  0  0  0  0  0  0
   18.7823   73.7909   -5.1942 O   0  0  0  0  0  0  0  0  0  0  0  0
   19.4659   73.9425   -3.7372 P   0  0  2  0  0  0  0  0  0  0  0  0
   18.4442   73.1511   -2.7639 O   0  0  0  0  0  0  0  0  0  0  0  0
   19.7362   75.3617   -3.3290 O   0  0  0  0  0  0  0  0  0  0  0  0
   20.7772   73.0037   -3.8016 O   0  0  0  0  0  0  0  0  0  0  0  0
   22.0364   73.6676   -1.9068 O   0  0  0  0  0  0  0  0  0  0  0  0
   24.4836   70.6476   -3.3001 O   0  0  0  0  0  0  0  0  0  0  0  0
   22.9353   70.2322   -0.9172 O   0  0  0  0  0  0  0  0  0  0  0  0
   23.1513   72.4066   -5.1737 O   0  0  0  0  0  0  0  0  0  0  0  0
   23.2372   71.2978   -3.0372 C   0  0  1  0  0  0  0  0  0  0  0  0
   23.1151   71.5076   -1.5266 C   0  0  1  0  0  0  0  0  0  0  0  0
   23.2089   72.6377   -3.7702 C   0  0  2  0  0  0  0  0  0  0  0  0
   21.9374   72.4319   -1.1892 C   0  0  1  0  0  0  0  0  0  0  0  0
   22.0258   73.4996   -3.3258 C   0  0  1  0  0  0  0  0  0  0  0  0
   24.5079   69.7959   -2.8380 H   0  0  0  0  0  0  0  0  0  0  0  0
   23.6854   69.6582   -1.1385 H   0  0  0  0  0  0  0  0  0  0  0  0
   23.9056   71.8602   -5.4425 H   0  0  0  0  0  0  0  0  0  0  0  0
   23.0787   72.3071    0.9062 O   0  0  0  0  0  0  0  0  0  0  0  0
   21.8921   72.7813    0.2967 C   0  0  0  0  0  0  0  0  0  0  0  0
   23.0640   72.5227    1.8523 H   0  0  0  0  0  0  0  0  0  0  0  0
 25 28  1  0
 25 24  1  0
 25 26  1  1
 25 27  2  0
  1  4  1  0
  1 24  1  0
  1  2  1  6
  1  3  2  0
  6 11  1  0
  6 12  1  0
 29 36  1  0
 29 37  1  0
  9  7  1  6
  7 13  1  0
 10  8  1  1
  8 14  1  0
 37 28  1  1
  4  5  1  0
 33 30  1  1
 30 38  1  0
 34 31  1  1
 31 39  1  0
 35 32  1  6
 32 40  1  0
 41 42  1  0
 41 43  1  0
 15 19  2  0
 16 22  2  0
 12 17  1  1
 17 19  1  0
 17 20  1  0
 18 19  1  0
 18 22  1  0
 18 23  1  0
  9 10  1  0
  9 11  1  0
 10 12  1  0
 11  5  1  1
 33 34  1  0
 33 35  1  0
 34 36  1  0
 35 37  1  0
 36 42  1  1
 20 21  2  0
 21 22  1  0
M  CHG  2   2  -1  26  -1
M  END
>  <COMPND>  (129) 
    8629 

>  <AUTHOR>  (129) 
    GENERATED BY OPEN BABEL 3.1.1

>  <MASTER>  (129) 
        0    0    0    0    0    0    0    0   58    0   58    0

>  <minimizedAffinity>  (129) 
-7.61445

>  <CNNscore>  (129) 
0.5346009135

>  <CNNaffinity>  (129) 
4.1945657730

>  <CNN_VS>  (129) 
2.2424187660

>  <CNNaffinity_variance>  (129) 
0.7111946344

$$$$
130
     RDKit          3D

 43 45  0  0  0  0  0  0  0  0999 V2000
   21.8174   72.1623   -3.6684 P   0  0  2  0  0  0  0  0  0  0  0  0
   20.8924   73.4894   -3.6947 O   0  0  0  0  0  0  0  0  0  0  0  0
   23.1581   72.3112   -4.3255 O   0  0  0  0  0  0  0  0  0  0  0  0
   20.8600   71.0094   -4.2783 O   0  0  0  0  0  0  0  0  0  0  0  0
   20.4462   69.9542   -3.4279 C   0  0  0  0  0  0  0  0  0  0  0  0
   18.3489   70.8120   -4.2274 O   0  0  0  0  0  0  0  0  0  0  0  0
   17.0563   69.0115   -2.2079 O   0  0  0  0  0  0  0  0  0  0  0  0
   16.7505   67.6157   -4.5305 O   0  0  0  0  0  0  0  0  0  0  0  0
   18.2250   68.7912   -2.9958 C   0  0  1  0  0  0  0  0  0  0  0  0
   17.8438   68.5057   -4.4334 C   0  0  2  0  0  0  0  0  0  0  0  0
   18.9641   70.1177   -3.1202 C   0  0  1  0  0  0  0  0  0  0  0  0
   17.5151   69.8946   -4.9540 C   0  0  2  0  0  0  0  0  0  0  0  0
   16.5679   68.1781   -2.1142 H   0  0  0  0  0  0  0  0  0  0  0  0
   17.0095   66.7464   -4.1871 H   0  0  0  0  0  0  0  0  0  0  0  0
   15.8399   71.2568   -6.7750 O   0  0  0  0  0  0  0  0  0  0  0  0
   18.6478   70.3541  -10.3164 O   0  0  0  0  0  0  0  0  0  0  0  0
   17.7843   70.0313   -6.3577 N   0  0  0  0  0  0  0  0  0  0  0  0
   17.2395   70.8064   -8.5368 N   0  0  0  0  0  0  0  0  0  0  0  0
   16.8781   70.7340   -7.1855 C   0  0  0  0  0  0  0  0  0  0  0  0
   18.9364   69.4722   -6.9000 C   0  0  0  0  0  0  0  0  0  0  0  0
   19.2659   69.5490   -8.1910 C   0  0  0  0  0  0  0  0  0  0  0  0
   18.3728   70.2661   -9.1238 C   0  0  0  0  0  0  0  0  0  0  0  0
   16.6229   71.2908   -9.1326 H   0  0  0  0  0  0  0  0  0  0  0  0
   21.8763   71.7915   -2.0961 O   0  0  0  0  0  0  0  0  0  0  0  0
   22.8843   72.2747   -0.9285 P   0  0  2  0  0  0  0  0  0  0  0  0
   24.2117   71.3888   -1.1941 O   0  0  0  0  0  0  0  0  0  0  0  0
   22.3239   72.1501    0.4587 O   0  0  0  0  0  0  0  0  0  0  0  0
   23.3052   73.7755   -1.3475 O   0  0  0  0  0  0  0  0  0  0  0  0
   23.1902   75.1978    0.5447 O   0  0  0  0  0  0  0  0  0  0  0  0
   23.9472   78.0292   -2.3641 O   0  0  0  0  0  0  0  0  0  0  0  0
   26.0143   77.3249   -0.4988 O   0  0  0  0  0  0  0  0  0  0  0  0
   22.1928   75.8001   -2.9407 O   0  0  0  0  0  0  0  0  0  0  0  0
   24.0485   76.7494   -1.7339 C   0  0  1  0  0  0  0  0  0  0  0  0
   24.6495   76.9470   -0.3408 C   0  0  1  0  0  0  0  0  0  0  0  0
   22.6557   76.1298   -1.6356 C   0  0  2  0  0  0  0  0  0  0  0  0
   24.5435   75.6646    0.4953 C   0  0  1  0  0  0  0  0  0  0  0  0
   22.6517   74.8881   -0.7422 C   0  0  1  0  0  0  0  0  0  0  0  0
   24.8283   78.4279   -2.4300 H   0  0  0  0  0  0  0  0  0  0  0  0
   26.0673   78.1357   -1.0289 H   0  0  0  0  0  0  0  0  0  0  0  0
   22.1998   76.5945   -3.4964 H   0  0  0  0  0  0  0  0  0  0  0  0
   26.4077   75.9148    1.9687 O   0  0  0  0  0  0  0  0  0  0  0  0
   24.9927   75.8838    1.9383 C   0  0  0  0  0  0  0  0  0  0  0  0
   26.7080   76.0541    2.8809 H   0  0  0  0  0  0  0  0  0  0  0  0
 25 28  1  0
 25 24  1  0
 25 26  1  1
 25 27  2  0
  1  4  1  0
  1 24  1  0
  1  2  1  1
  1  3  2  0
  6 11  1  0
  6 12  1  0
 29 36  1  0
 29 37  1  0
  9  7  1  1
  7 13  1  0
 10  8  1  1
  8 14  1  0
 37 28  1  6
  4  5  1  0
 33 30  1  1
 30 38  1  0
 34 31  1  6
 31 39  1  0
 35 32  1  6
 32 40  1  0
 41 42  1  0
 41 43  1  0
 15 19  2  0
 16 22  2  0
 12 17  1  6
 17 19  1  0
 17 20  1  0
 18 19  1  0
 18 22  1  0
 18 23  1  0
  9 10  1  0
  9 11  1  0
 10 12  1  0
 11  5  1  6
 33 34  1  0
 33 35  1  0
 34 36  1  0
 35 37  1  0
 36 42  1  1
 20 21  2  0
 21 22  1  0
M  CHG  2   2  -1  26  -1
M  END
>  <COMPND>  (130) 
    8629 

>  <AUTHOR>  (130) 
    GENERATED BY OPEN BABEL 3.1.1

>  <MASTER>  (130) 
        0    0    0    0    0    0    0    0   58    0   58    0

>  <minimizedAffinity>  (130) 
-7.31120

>  <CNNscore>  (130) 
0.5214149356

>  <CNNaffinity>  (130) 
4.3895788193

>  <CNN_VS>  (130) 
2.2887918949

>  <CNNaffinity_variance>  (130) 
0.0212692078

$$$$
131
     RDKit          3D

 43 45  0  0  0  0  0  0  0  0999 V2000
   17.3849   70.5029   -2.2821 P   0  0  2  0  0  0  0  0  0  0  0  0
   15.9602   70.0455   -2.8973 O   0  0  0  0  0  0  0  0  0  0  0  0
   17.9515   69.5813   -1.2423 O   0  0  0  0  0  0  0  0  0  0  0  0
   17.1306   72.0281   -1.8057 O   0  0  0  0  0  0  0  0  0  0  0  0
   18.2176   72.9364   -1.8371 C   0  0  0  0  0  0  0  0  0  0  0  0
   19.8887   72.1372   -0.3067 O   0  0  0  0  0  0  0  0  0  0  0  0
   19.3841   74.6432    1.2605 O   0  0  0  0  0  0  0  0  0  0  0  0
   21.6799   75.2365   -0.0863 O   0  0  0  0  0  0  0  0  0  0  0  0
   19.3813   74.4468   -0.1526 C   0  0  1  0  0  0  0  0  0  0  0  0
   20.7984   74.2960   -0.6652 C   0  0  2  0  0  0  0  0  0  0  0  0
   18.7931   73.0698   -0.4339 C   0  0  1  0  0  0  0  0  0  0  0  0
   21.1263   72.8664   -0.2690 C   0  0  2  0  0  0  0  0  0  0  0  0
   19.7552   75.5164    1.4647 H   0  0  0  0  0  0  0  0  0  0  0  0
   21.4300   76.1303   -0.3683 H   0  0  0  0  0  0  0  0  0  0  0  0
   21.0250   73.1030   -3.0818 O   0  0  0  0  0  0  0  0  0  0  0  0
   24.7564   70.4523   -3.6223 O   0  0  0  0  0  0  0  0  0  0  0  0
   22.0590   72.2489   -1.1691 N   0  0  0  0  0  0  0  0  0  0  0  0
   22.8831   71.7831   -3.3486 N   0  0  0  0  0  0  0  0  0  0  0  0
   21.9189   72.4296   -2.5649 C   0  0  0  0  0  0  0  0  0  0  0  0
   23.0986   71.4744   -0.6658 C   0  0  0  0  0  0  0  0  0  0  0  0
   24.0092   70.8636   -1.4268 C   0  0  0  0  0  0  0  0  0  0  0  0
   23.9343   71.0017   -2.8956 C   0  0  0  0  0  0  0  0  0  0  0  0
   22.8053   71.8946   -4.3240 H   0  0  0  0  0  0  0  0  0  0  0  0
   18.3079   70.6821   -3.5970 O   0  0  0  0  0  0  0  0  0  0  0  0
   19.3771   69.6855   -4.2873 P   0  0  2  0  0  0  0  0  0  0  0  0
   18.6322   68.2501   -4.2375 O   0  0  0  0  0  0  0  0  0  0  0  0
   20.7351   69.7010   -3.6473 O   0  0  0  0  0  0  0  0  0  0  0  0
   19.3686   70.0952   -5.8484 O   0  0  0  0  0  0  0  0  0  0  0  0
   17.1029   70.2811   -6.5182 O   0  0  0  0  0  0  0  0  0  0  0  0
   18.9262   70.9846  -10.1557 O   0  0  0  0  0  0  0  0  0  0  0  0
   17.6787   73.1570   -8.7513 O   0  0  0  0  0  0  0  0  0  0  0  0
   20.0219   69.0048   -8.3503 O   0  0  0  0  0  0  0  0  0  0  0  0
   18.7924   71.0404   -8.7329 C   0  0  1  0  0  0  0  0  0  0  0  0
   17.4989   71.7874   -8.4018 C   0  0  1  0  0  0  0  0  0  0  0  0
   18.7482   69.6173   -8.1796 C   0  0  2  0  0  0  0  0  0  0  0  0
   17.1496   71.6572   -6.9131 C   0  0  1  0  0  0  0  0  0  0  0  0
   18.3437   69.5972   -6.7044 C   0  0  1  0  0  0  0  0  0  0  0  0
   18.9554   71.8850  -10.5134 H   0  0  0  0  0  0  0  0  0  0  0  0
   17.8992   73.2252   -9.6936 H   0  0  0  0  0  0  0  0  0  0  0  0
   20.2664   69.0236   -9.2882 H   0  0  0  0  0  0  0  0  0  0  0  0
   15.3653   71.7761   -5.3285 O   0  0  0  0  0  0  0  0  0  0  0  0
   15.7840   72.2602   -6.5912 C   0  0  0  0  0  0  0  0  0  0  0  0
   14.4976   72.1518   -5.1103 H   0  0  0  0  0  0  0  0  0  0  0  0
 25 28  1  0
 25 24  1  0
 25 26  1  6
 25 27  2  0
  1  4  1  0
  1 24  1  0
  1  2  1  6
  1  3  2  0
  6 11  1  0
  6 12  1  0
 29 36  1  0
 29 37  1  0
  9  7  1  1
  7 13  1  0
 10  8  1  1
  8 14  1  0
 37 28  1  1
  4  5  1  0
 33 30  1  6
 30 38  1  0
 34 31  1  1
 31 39  1  0
 35 32  1  1
 32 40  1  0
 41 42  1  0
 41 43  1  0
 15 19  2  0
 16 22  2  0
 12 17  1  6
 17 19  1  0
 17 20  1  0
 18 19  1  0
 18 22  1  0
 18 23  1  0
  9 10  1  0
  9 11  1  0
 10 12  1  0
 11  5  1  6
 33 34  1  0
 33 35  1  0
 34 36  1  0
 35 37  1  0
 36 42  1  6
 20 21  2  0
 21 22  1  0
M  CHG  2   2  -1  26  -1
M  END
>  <COMPND>  (131) 
    8629 

>  <AUTHOR>  (131) 
    GENERATED BY OPEN BABEL 3.1.1

>  <MASTER>  (131) 
        0    0    0    0    0    0    0    0   58    0   58    0

>  <minimizedAffinity>  (131) 
-8.19997

>  <CNNscore>  (131) 
0.4908316135

>  <CNNaffinity>  (131) 
4.0984435081

>  <CNN_VS>  (131) 
2.0116455555

>  <CNNaffinity_variance>  (131) 
0.7729443312

$$$$
132
     RDKit          3D

 43 45  0  0  0  0  0  0  0  0999 V2000
   20.4464   71.3462   -1.1876 P   0  0  2  0  0  0  0  0  0  0  0  0
   20.1073   69.8567   -0.6551 O   0  0  0  0  0  0  0  0  0  0  0  0
   20.6163   72.3800   -0.1134 O   0  0  0  0  0  0  0  0  0  0  0  0
   19.2837   71.6449   -2.2725 O   0  0  0  0  0  0  0  0  0  0  0  0
   18.9157   70.6125   -3.1706 C   0  0  0  0  0  0  0  0  0  0  0  0
   16.9822   71.1051   -4.5095 O   0  0  0  0  0  0  0  0  0  0  0  0
   15.5118   69.1562   -2.7686 O   0  0  0  0  0  0  0  0  0  0  0  0
   16.0168   67.6874   -5.0100 O   0  0  0  0  0  0  0  0  0  0  0  0
   16.8608   69.1135   -3.2309 C   0  0  1  0  0  0  0  0  0  0  0  0
   16.9020   68.7441   -4.6991 C   0  0  2  0  0  0  0  0  0  0  0  0
   17.3968   70.5396   -3.2467 C   0  0  1  0  0  0  0  0  0  0  0  0
   16.5079   70.0518   -5.3643 C   0  0  2  0  0  0  0  0  0  0  0  0
   15.1481   68.2566   -2.7496 H   0  0  0  0  0  0  0  0  0  0  0  0
   16.3100   66.8778   -4.5636 H   0  0  0  0  0  0  0  0  0  0  0  0
   15.3735   71.5624   -7.4641 O   0  0  0  0  0  0  0  0  0  0  0  0
   18.8601   70.5669  -10.3091 O   0  0  0  0  0  0  0  0  0  0  0  0
   17.0980   70.2048   -6.6642 N   0  0  0  0  0  0  0  0  0  0  0  0
   17.1105   71.0656   -8.8789 N   0  0  0  0  0  0  0  0  0  0  0  0
   16.4465   70.9841   -7.6483 C   0  0  0  0  0  0  0  0  0  0  0  0
   18.3097   69.5862   -6.9522 C   0  0  0  0  0  0  0  0  0  0  0  0
   18.9293   69.6727   -8.1312 C   0  0  0  0  0  0  0  0  0  0  0  0
   18.3152   70.4680   -9.2140 C   0  0  0  0  0  0  0  0  0  0  0  0
   16.6751   71.6029   -9.5800 H   0  0  0  0  0  0  0  0  0  0  0  0
   21.7532   71.1137   -2.1102 O   0  0  0  0  0  0  0  0  0  0  0  0
   22.8375   72.1587   -2.6977 P   0  0  2  0  0  0  0  0  0  0  0  0
   23.8576   71.2110   -3.5216 O   0  0  0  0  0  0  0  0  0  0  0  0
   23.4941   73.0157   -1.6544 O   0  0  0  0  0  0  0  0  0  0  0  0
   22.0383   72.9815   -3.8331 O   0  0  0  0  0  0  0  0  0  0  0  0
   20.6494   72.4342   -5.6737 O   0  0  0  0  0  0  0  0  0  0  0  0
   23.0967   75.2153   -7.4979 O   0  0  0  0  0  0  0  0  0  0  0  0
   20.3747   75.9025   -6.8922 O   0  0  0  0  0  0  0  0  0  0  0  0
   24.2055   73.3560   -5.5762 O   0  0  0  0  0  0  0  0  0  0  0  0
   22.3524   74.6434   -6.4188 C   0  0  1  0  0  0  0  0  0  0  0  0
   20.8819   74.5722   -6.8351 C   0  0  1  0  0  0  0  0  0  0  0  0
   22.8957   73.2467   -6.1228 C   0  0  2  0  0  0  0  0  0  0  0  0
   20.0658   73.7312   -5.8443 C   0  0  1  0  0  0  0  0  0  0  0  0
   21.9840   72.4774   -5.1651 C   0  0  1  0  0  0  0  0  0  0  0  0
   22.7570   76.1024   -7.6906 H   0  0  0  0  0  0  0  0  0  0  0  0
   20.8991   76.4230   -7.5210 H   0  0  0  0  0  0  0  0  0  0  0  0
   24.7730   73.8447   -6.1919 H   0  0  0  0  0  0  0  0  0  0  0  0
   18.5928   73.7040   -7.7253 O   0  0  0  0  0  0  0  0  0  0  0  0
   18.6316   73.5156   -6.3227 C   0  0  0  0  0  0  0  0  0  0  0  0
   17.6860   73.5696   -8.0440 H   0  0  0  0  0  0  0  0  0  0  0  0
 25 28  1  0
 25 24  1  0
 25 26  1  6
 25 27  2  0
  1  4  1  0
  1 24  1  0
  1  2  1  1
  1  3  2  0
  6 11  1  0
  6 12  1  0
 29 36  1  0
 29 37  1  0
  9  7  1  6
  7 13  1  0
 10  8  1  1
  8 14  1  0
 37 28  1  1
  4  5  1  0
 33 30  1  6
 30 38  1  0
 34 31  1  1
 31 39  1  0
 35 32  1  1
 32 40  1  0
 41 42  1  0
 41 43  1  0
 15 19  2  0
 16 22  2  0
 12 17  1  6
 17 19  1  0
 17 20  1  0
 18 19  1  0
 18 22  1  0
 18 23  1  0
  9 10  1  0
  9 11  1  0
 10 12  1  0
 11  5  1  6
 33 34  1  0
 33 35  1  0
 34 36  1  0
 35 37  1  0
 36 42  1  6
 20 21  2  0
 21 22  1  0
M  CHG  2   2  -1  26  -1
M  END
>  <COMPND>  (132) 
    8629 

>  <AUTHOR>  (132) 
    GENERATED BY OPEN BABEL 3.1.1

>  <MASTER>  (132) 
        0    0    0    0    0    0    0    0   58    0   58    0

>  <minimizedAffinity>  (132) 
-7.55823

>  <CNNscore>  (132) 
0.4864442647

>  <CNNaffinity>  (132) 
4.2187929153

>  <CNN_VS>  (132) 
2.0522077084

>  <CNNaffinity_variance>  (132) 
0.6945029497

$$$$
133
     RDKit          3D

 43 45  0  0  0  0  0  0  0  0999 V2000
   22.3958   71.2701   -1.9168 P   0  0  2  0  0  0  0  0  0  0  0  0
   23.7015   70.7538   -2.7206 O   0  0  0  0  0  0  0  0  0  0  0  0
   21.9578   70.3871   -0.7855 O   0  0  0  0  0  0  0  0  0  0  0  0
   21.2980   71.5199   -3.0788 O   0  0  0  0  0  0  0  0  0  0  0  0
   20.6301   70.3984   -3.6303 C   0  0  0  0  0  0  0  0  0  0  0  0
   18.4675   71.0837   -4.4221 O   0  0  0  0  0  0  0  0  0  0  0  0
   17.3314   69.3237   -2.2768 O   0  0  0  0  0  0  0  0  0  0  0  0
   17.0610   67.7857   -4.5124 O   0  0  0  0  0  0  0  0  0  0  0  0
   18.4940   69.1303   -3.0807 C   0  0  1  0  0  0  0  0  0  0  0  0
   18.0998   68.7434   -4.4908 C   0  0  2  0  0  0  0  0  0  0  0  0
   19.1478   70.4898   -3.2949 C   0  0  1  0  0  0  0  0  0  0  0  0
   17.6757   70.0793   -5.0772 C   0  0  2  0  0  0  0  0  0  0  0  0
   16.8969   68.4690   -2.1261 H   0  0  0  0  0  0  0  0  0  0  0  0
   17.3800   66.9538   -4.1292 H   0  0  0  0  0  0  0  0  0  0  0  0
   15.9750   71.4038   -6.9024 O   0  0  0  0  0  0  0  0  0  0  0  0
   18.6566   70.2996  -10.4844 O   0  0  0  0  0  0  0  0  0  0  0  0
   17.9055   70.1539   -6.4924 N   0  0  0  0  0  0  0  0  0  0  0  0
   17.3117   70.8531   -8.6845 N   0  0  0  0  0  0  0  0  0  0  0  0
   16.9895   70.8426   -7.3213 C   0  0  0  0  0  0  0  0  0  0  0  0
   19.0292   69.5488   -7.0449 C   0  0  0  0  0  0  0  0  0  0  0  0
   19.3213   69.5668   -8.3470 C   0  0  0  0  0  0  0  0  0  0  0  0
   18.4156   70.2653   -9.2817 C   0  0  0  0  0  0  0  0  0  0  0  0
   16.6877   71.3266   -9.2812 H   0  0  0  0  0  0  0  0  0  0  0  0
   22.8085   72.7703   -1.4784 O   0  0  0  0  0  0  0  0  0  0  0  0
   22.5896   74.1906   -2.2184 P   0  0  2  0  0  0  0  0  0  0  0  0
   23.8858   75.0475   -1.7676 O   0  0  0  0  0  0  0  0  0  0  0  0
   21.2753   74.8481   -1.9118 O   0  0  0  0  0  0  0  0  0  0  0  0
   22.8320   73.8776   -3.7831 O   0  0  0  0  0  0  0  0  0  0  0  0
   23.3661   75.2316   -5.6534 O   0  0  0  0  0  0  0  0  0  0  0  0
   20.5501   72.7702   -7.4034 O   0  0  0  0  0  0  0  0  0  0  0  0
   23.3251   72.4473   -8.0690 O   0  0  0  0  0  0  0  0  0  0  0  0
   20.1804   73.6794   -4.6801 O   0  0  0  0  0  0  0  0  0  0  0  0
   21.6244   73.0973   -6.5179 C   0  0  1  0  0  0  0  0  0  0  0  0
   22.8117   73.5708   -7.3587 C   0  0  1  0  0  0  0  0  0  0  0  0
   21.1673   74.1997   -5.5643 C   0  0  2  0  0  0  0  0  0  0  0  0
   23.9040   74.1895   -6.4759 C   0  0  1  0  0  0  0  0  0  0  0  0
   22.3382   74.7803   -4.7694 C   0  0  1  0  0  0  0  0  0  0  0  0
   20.8337   72.0705   -8.0113 H   0  0  0  0  0  0  0  0  0  0  0  0
   22.6254   72.0657   -8.6221 H   0  0  0  0  0  0  0  0  0  0  0  0
   19.4445   73.3151   -5.1955 H   0  0  0  0  0  0  0  0  0  0  0  0
   24.6407   74.7929   -8.6673 O   0  0  0  0  0  0  0  0  0  0  0  0
   25.0262   74.8101   -7.3052 C   0  0  0  0  0  0  0  0  0  0  0  0
   25.3453   75.1852   -9.2071 H   0  0  0  0  0  0  0  0  0  0  0  0
 25 28  1  0
 25 24  1  0
 25 26  1  1
 25 27  2  0
  1  4  1  0
  1 24  1  0
  1  2  1  6
  1  3  2  0
  6 11  1  0
  6 12  1  0
 29 36  1  0
 29 37  1  0
  9  7  1  1
  7 13  1  0
 10  8  1  1
  8 14  1  0
 37 28  1  1
  4  5  1  0
 33 30  1  6
 30 38  1  0
 34 31  1  1
 31 39  1  0
 35 32  1  1
 32 40  1  0
 41 42  1  0
 41 43  1  0
 15 19  2  0
 16 22  2  0
 12 17  1  6
 17 19  1  0
 17 20  1  0
 18 19  1  0
 18 22  1  0
 18 23  1  0
  9 10  1  0
  9 11  1  0
 10 12  1  0
 11  5  1  6
 33 34  1  0
 33 35  1  0
 34 36  1  0
 35 37  1  0
 36 42  1  6
 20 21  2  0
 21 22  1  0
M  CHG  2   2  -1  26  -1
M  END
>  <COMPND>  (133) 
    8629 

>  <AUTHOR>  (133) 
    GENERATED BY OPEN BABEL 3.1.1

>  <MASTER>  (133) 
        0    0    0    0    0    0    0    0   58    0   58    0

>  <minimizedAffinity>  (133) 
-7.91058

>  <CNNscore>  (133) 
0.4376170933

>  <CNNaffinity>  (133) 
4.1644916534

>  <CNN_VS>  (133) 
1.8224527836

>  <CNNaffinity_variance>  (133) 
0.6731874347

$$$$
134
     RDKit          3D

 43 45  0  0  0  0  0  0  0  0999 V2000
   16.2709   72.8733   -2.7590 P   0  0  2  0  0  0  0  0  0  0  0  0
   14.9636   72.3286   -3.5411 O   0  0  0  0  0  0  0  0  0  0  0  0
   15.9826   73.6609   -1.5148 O   0  0  0  0  0  0  0  0  0  0  0  0
   17.1124   73.6493   -3.9026 O   0  0  0  0  0  0  0  0  0  0  0  0
   16.5419   73.7751   -5.1935 C   0  0  0  0  0  0  0  0  0  0  0  0
   18.2982   72.2267   -5.7337 O   0  0  0  0  0  0  0  0  0  0  0  0
   17.9469   73.1097   -8.5776 O   0  0  0  0  0  0  0  0  0  0  0  0
   16.6097   70.7337   -8.5234 O   0  0  0  0  0  0  0  0  0  0  0  0
   16.9636   72.9371   -7.5585 C   0  0  1  0  0  0  0  0  0  0  0  0
   16.7090   71.4638   -7.3176 C   0  0  2  0  0  0  0  0  0  0  0  0
   17.5781   73.3743   -6.2346 C   0  0  1  0  0  0  0  0  0  0  0  0
   17.9201   71.0657   -6.4912 C   0  0  2  0  0  0  0  0  0  0  0  0
   17.5774   72.8373   -9.4327 H   0  0  0  0  0  0  0  0  0  0  0  0
   15.8240   71.0231   -9.0130 H   0  0  0  0  0  0  0  0  0  0  0  0
   19.8866   69.4931   -5.2115 O   0  0  0  0  0  0  0  0  0  0  0  0
   16.7086   66.9640   -3.0332 O   0  0  0  0  0  0  0  0  0  0  0  0
   17.6346   69.9899   -5.5843 N   0  0  0  0  0  0  0  0  0  0  0  0
   18.3026   68.2352   -4.1278 N   0  0  0  0  0  0  0  0  0  0  0  0
   18.6951   69.2619   -4.9961 C   0  0  0  0  0  0  0  0  0  0  0  0
   16.3154   69.6664   -5.2861 C   0  0  0  0  0  0  0  0  0  0  0  0
   15.9579   68.6836   -4.4570 C   0  0  0  0  0  0  0  0  0  0  0  0
   17.0051   67.8745   -3.8006 C   0  0  0  0  0  0  0  0  0  0  0  0
   19.0244   67.7142   -3.7066 H   0  0  0  0  0  0  0  0  0  0  0  0
   17.1371   71.5298   -2.5192 O   0  0  0  0  0  0  0  0  0  0  0  0
   18.4214   71.2484   -1.5788 P   0  0  2  0  0  0  0  0  0  0  0  0
   18.3093   69.6660   -1.2614 O   0  0  0  0  0  0  0  0  0  0  0  0
   18.4940   72.1210   -0.3592 O   0  0  0  0  0  0  0  0  0  0  0  0
   19.6891   71.3768   -2.5695 O   0  0  0  0  0  0  0  0  0  0  0  0
   20.8158   73.1950   -1.5492 O   0  0  0  0  0  0  0  0  0  0  0  0
   23.7095   72.0693   -4.2714 O   0  0  0  0  0  0  0  0  0  0  0  0
   24.0992   71.5205   -1.4795 O   0  0  0  0  0  0  0  0  0  0  0  0
   20.9141   71.9883   -5.0190 O   0  0  0  0  0  0  0  0  0  0  0  0
   22.6407   71.8598   -3.3445 C   0  0  1  0  0  0  0  0  0  0  0  0
   23.0819   72.3853   -1.9770 C   0  0  1  0  0  0  0  0  0  0  0  0
   21.4019   72.6078   -3.8338 C   0  0  2  0  0  0  0  0  0  0  0  0
   21.9016   72.4408   -0.9978 C   0  0  1  0  0  0  0  0  0  0  0  0
   20.3068   72.6460   -2.7663 C   0  0  1  0  0  0  0  0  0  0  0  0
   24.4990   71.5966   -3.9669 H   0  0  0  0  0  0  0  0  0  0  0  0
   24.8383   71.4940   -2.1073 H   0  0  0  0  0  0  0  0  0  0  0  0
   21.6165   71.9706   -5.6870 H   0  0  0  0  0  0  0  0  0  0  0  0
   23.1630   72.2480    1.0223 O   0  0  0  0  0  0  0  0  0  0  0  0
   22.2839   73.1084    0.3214 C   0  0  0  0  0  0  0  0  0  0  0  0
   23.4150   72.6601    1.8639 H   0  0  0  0  0  0  0  0  0  0  0  0
 25 28  1  0
 25 24  1  0
 25 26  1  1
 25 27  2  0
  1  4  1  0
  1 24  1  0
  1  2  1  6
  1  3  2  0
  6 11  1  0
  6 12  1  0
 29 36  1  0
 29 37  1  0
  9  7  1  6
  7 13  1  0
 10  8  1  6
  8 14  1  0
 37 28  1  1
  4  5  1  0
 33 30  1  6
 30 38  1  0
 34 31  1  1
 31 39  1  0
 35 32  1  6
 32 40  1  0
 41 42  1  0
 41 43  1  0
 15 19  2  0
 16 22  2  0
 12 17  1  1
 17 19  1  0
 17 20  1  0
 18 19  1  0
 18 22  1  0
 18 23  1  0
  9 10  1  0
  9 11  1  0
 10 12  1  0
 11  5  1  1
 33 34  1  0
 33 35  1  0
 34 36  1  0
 35 37  1  0
 36 42  1  1
 20 21  2  0
 21 22  1  0
M  CHG  2   2  -1  26  -1
M  END
>  <COMPND>  (134) 
    8629 

>  <AUTHOR>  (134) 
    GENERATED BY OPEN BABEL 3.1.1

>  <MASTER>  (134) 
        0    0    0    0    0    0    0    0   58    0   58    0

>  <minimizedAffinity>  (134) 
-7.27709

>  <CNNscore>  (134) 
0.4290453494

>  <CNNaffinity>  (134) 
3.9131450653

>  <CNN_VS>  (134) 
1.6789166927

>  <CNNaffinity_variance>  (134) 
0.8797168732

$$$$
135
     RDKit          3D

 43 45  0  0  0  0  0  0  0  0999 V2000
   23.0091   72.1458   -3.6891 P   0  0  2  0  0  0  0  0  0  0  0  0
   23.9961   70.8866   -3.4491 O   0  0  0  0  0  0  0  0  0  0  0  0
   22.9221   73.1103   -2.5430 O   0  0  0  0  0  0  0  0  0  0  0  0
   21.6131   71.4643   -4.1415 O   0  0  0  0  0  0  0  0  0  0  0  0
   21.2105   70.2628   -3.5075 C   0  0  0  0  0  0  0  0  0  0  0  0
   18.9929   71.0468   -3.9989 O   0  0  0  0  0  0  0  0  0  0  0  0
   18.0915   69.3841   -1.6721 O   0  0  0  0  0  0  0  0  0  0  0  0
   17.4273   67.8257   -3.8091 O   0  0  0  0  0  0  0  0  0  0  0  0
   19.1156   69.1171   -2.6288 C   0  0  1  0  0  0  0  0  0  0  0  0
   18.5043   68.7281   -3.9587 C   0  0  2  0  0  0  0  0  0  0  0  0
   19.7980   70.4369   -2.9663 C   0  0  1  0  0  0  0  0  0  0  0  0
   18.0667   70.0744   -4.5102 C   0  0  2  0  0  0  0  0  0  0  0  0
   17.6416   68.5559   -1.4407 H   0  0  0  0  0  0  0  0  0  0  0  0
   17.7567   66.9847   -3.4555 H   0  0  0  0  0  0  0  0  0  0  0  0
   16.0340   71.2014   -6.1151 O   0  0  0  0  0  0  0  0  0  0  0  0
   18.2786   70.1670  -10.0053 O   0  0  0  0  0  0  0  0  0  0  0  0
   18.0943   70.1136   -5.9451 N   0  0  0  0  0  0  0  0  0  0  0  0
   17.1534   70.6856   -8.0508 N   0  0  0  0  0  0  0  0  0  0  0  0
   17.0225   70.7017   -6.6563 C   0  0  0  0  0  0  0  0  0  0  0  0
   19.1757   69.5731   -6.6325 C   0  0  0  0  0  0  0  0  0  0  0  0
   19.2848   69.5646   -7.9626 C   0  0  0  0  0  0  0  0  0  0  0  0
   18.2078   70.1594   -8.7802 C   0  0  0  0  0  0  0  0  0  0  0  0
   16.4185   71.0894   -8.5672 H   0  0  0  0  0  0  0  0  0  0  0  0
   23.5641   72.7854   -5.0660 O   0  0  0  0  0  0  0  0  0  0  0  0
   22.7845   73.4218   -6.3309 P   0  0  2  0  0  0  0  0  0  0  0  0
   21.4842   74.1098   -5.6575 O   0  0  0  0  0  0  0  0  0  0  0  0
   22.4701   72.4365   -7.4192 O   0  0  0  0  0  0  0  0  0  0  0  0
   23.7063   74.6619   -6.7973 O   0  0  0  0  0  0  0  0  0  0  0  0
   25.8896   74.7711   -7.7126 O   0  0  0  0  0  0  0  0  0  0  0  0
   26.0751   78.0222   -5.1735 O   0  0  0  0  0  0  0  0  0  0  0  0
   25.9138   78.4454   -8.0095 O   0  0  0  0  0  0  0  0  0  0  0  0
   24.6818   75.6229   -4.3478 O   0  0  0  0  0  0  0  0  0  0  0  0
   25.4478   77.1110   -6.0799 C   0  0  1  0  0  0  0  0  0  0  0  0
   26.1882   77.1789   -7.4171 C   0  0  1  0  0  0  0  0  0  0  0  0
   25.5174   75.7005   -5.4977 C   0  0  2  0  0  0  0  0  0  0  0  0
   25.7475   76.0448   -8.3524 C   0  0  1  0  0  0  0  0  0  0  0  0
   25.1051   74.6446   -6.5249 C   0  0  1  0  0  0  0  0  0  0  0  0
   26.0339   78.9198   -5.5370 H   0  0  0  0  0  0  0  0  0  0  0  0
   26.1963   79.1527   -7.4086 H   0  0  0  0  0  0  0  0  0  0  0  0
   24.9532   76.2961   -3.7051 H   0  0  0  0  0  0  0  0  0  0  0  0
   26.4102   74.7309  -10.2348 O   0  0  0  0  0  0  0  0  0  0  0  0
   26.5844   75.9985   -9.6289 C   0  0  0  0  0  0  0  0  0  0  0  0
   26.9368   74.6871  -11.0487 H   0  0  0  0  0  0  0  0  0  0  0  0
 25 28  1  0
 25 24  1  0
 25 26  1  1
 25 27  2  0
  1  4  1  0
  1 24  1  0
  1  2  1  1
  1  3  2  0
  6 11  1  0
  6 12  1  0
 29 36  1  0
 29 37  1  0
  9  7  1  1
  7 13  1  0
 10  8  1  1
  8 14  1  0
 37 28  1  6
  4  5  1  0
 33 30  1  1
 30 38  1  0
 34 31  1  6
 31 39  1  0
 35 32  1  1
 32 40  1  0
 41 42  1  0
 41 43  1  0
 15 19  2  0
 16 22  2  0
 12 17  1  6
 17 19  1  0
 17 20  1  0
 18 19  1  0
 18 22  1  0
 18 23  1  0
  9 10  1  0
  9 11  1  0
 10 12  1  0
 11  5  1  6
 33 34  1  0
 33 35  1  0
 34 36  1  0
 35 37  1  0
 36 42  1  6
 20 21  2  0
 21 22  1  0
M  CHG  2   2  -1  26  -1
M  END
>  <COMPND>  (135) 
    8629 

>  <AUTHOR>  (135) 
    GENERATED BY OPEN BABEL 3.1.1

>  <MASTER>  (135) 
        0    0    0    0    0    0    0    0   58    0   58    0

>  <minimizedAffinity>  (135) 
-7.35582

>  <CNNscore>  (135) 
0.4226753414

>  <CNNaffinity>  (135) 
4.3509292603

>  <CNN_VS>  (135) 
1.8390305042

>  <CNNaffinity_variance>  (135) 
0.2135385722

$$$$
136
     RDKit          3D

 43 45  0  0  0  0  0  0  0  0999 V2000
   15.9073   70.9430   -2.4801 P   0  0  2  0  0  0  0  0  0  0  0  0
   15.6130   71.8605   -3.7797 O   0  0  0  0  0  0  0  0  0  0  0  0
   14.7866   70.8761   -1.4846 O   0  0  0  0  0  0  0  0  0  0  0  0
   17.3148   71.5079   -1.9165 O   0  0  0  0  0  0  0  0  0  0  0  0
   17.3992   72.8760   -1.5575 C   0  0  0  0  0  0  0  0  0  0  0  0
   18.9859   72.0776    0.0608 O   0  0  0  0  0  0  0  0  0  0  0  0
   18.2974   74.5170    1.6626 O   0  0  0  0  0  0  0  0  0  0  0  0
   20.6602   75.2192    0.4963 O   0  0  0  0  0  0  0  0  0  0  0  0
   18.3974   74.3655    0.2476 C   0  0  1  0  0  0  0  0  0  0  0  0
   19.8502   74.2723   -0.1698 C   0  0  2  0  0  0  0  0  0  0  0  0
   17.8730   72.9815   -0.1143 C   0  0  1  0  0  0  0  0  0  0  0  0
   20.1947   72.8410    0.2056 C   0  0  2  0  0  0  0  0  0  0  0  0
   18.6262   75.3938    1.9178 H   0  0  0  0  0  0  0  0  0  0  0  0
   20.4025   76.1138    0.2243 H   0  0  0  0  0  0  0  0  0  0  0  0
   22.9725   73.0643    0.6656 O   0  0  0  0  0  0  0  0  0  0  0  0
   23.9803   70.6486   -3.1278 O   0  0  0  0  0  0  0  0  0  0  0  0
   21.2055   72.2797   -0.6455 N   0  0  0  0  0  0  0  0  0  0  0  0
   23.4720   71.8611   -1.2235 N   0  0  0  0  0  0  0  0  0  0  0  0
   22.5726   72.4499   -0.3255 C   0  0  0  0  0  0  0  0  0  0  0  0
   20.8375   71.5693   -1.7830 C   0  0  0  0  0  0  0  0  0  0  0  0
   21.7075   71.0152   -2.6299 C   0  0  0  0  0  0  0  0  0  0  0  0
   23.1554   71.1467   -2.3680 C   0  0  0  0  0  0  0  0  0  0  0  0
   24.4299   71.9670   -1.0210 H   0  0  0  0  0  0  0  0  0  0  0  0
   16.3194   69.5196   -3.1258 O   0  0  0  0  0  0  0  0  0  0  0  0
   17.5535   69.1063   -4.0845 P   0  0  2  0  0  0  0  0  0  0  0  0
   17.0587   67.7161   -4.7478 O   0  0  0  0  0  0  0  0  0  0  0  0
   18.8771   69.0204   -3.3813 O   0  0  0  0  0  0  0  0  0  0  0  0
   17.5067   70.1742   -5.2938 O   0  0  0  0  0  0  0  0  0  0  0  0
   18.9749   70.2423   -7.1530 O   0  0  0  0  0  0  0  0  0  0  0  0
   18.1106   74.2685   -6.8470 O   0  0  0  0  0  0  0  0  0  0  0  0
   17.0011   72.7405   -9.0109 O   0  0  0  0  0  0  0  0  0  0  0  0
   18.4518   72.6789   -4.4520 O   0  0  0  0  0  0  0  0  0  0  0  0
   17.8344   72.8672   -6.7725 C   0  0  1  0  0  0  0  0  0  0  0  0
   18.0416   72.2629   -8.1627 C   0  0  1  0  0  0  0  0  0  0  0  0
   18.7812   72.2250   -5.7604 C   0  0  2  0  0  0  0  0  0  0  0  0
   18.0251   70.7294   -8.1082 C   0  0  1  0  0  0  0  0  0  0  0  0
   18.7225   70.6976   -5.8222 C   0  0  1  0  0  0  0  0  0  0  0  0
   17.5124   74.6824   -7.4876 H   0  0  0  0  0  0  0  0  0  0  0  0
   17.0222   73.7101   -9.0362 H   0  0  0  0  0  0  0  0  0  0  0  0
   18.4929   73.6471   -4.4259 H   0  0  0  0  0  0  0  0  0  0  0  0
   18.7123   71.1448  -10.3586 O   0  0  0  0  0  0  0  0  0  0  0  0
   18.3864   70.1053   -9.4544 C   0  0  0  0  0  0  0  0  0  0  0  0
   18.9446   70.7625  -11.2197 H   0  0  0  0  0  0  0  0  0  0  0  0
 25 28  1  0
 25 24  1  0
 25 26  1  6
 25 27  2  0
  1  4  1  0
  1 24  1  0
  1  2  1  6
  1  3  2  0
  6 11  1  0
  6 12  1  0
 29 36  1  0
 29 37  1  0
  9  7  1  1
  7 13  1  0
 10  8  1  1
  8 14  1  0
 37 28  1  6
  4  5  1  0
 33 30  1  6
 30 38  1  0
 34 31  1  6
 31 39  1  0
 35 32  1  1
 32 40  1  0
 41 42  1  0
 41 43  1  0
 15 19  2  0
 16 22  2  0
 12 17  1  6
 17 19  1  0
 17 20  1  0
 18 19  1  0
 18 22  1  0
 18 23  1  0
  9 10  1  0
  9 11  1  0
 10 12  1  0
 11  5  1  6
 33 34  1  0
 33 35  1  0
 34 36  1  0
 35 37  1  0
 36 42  1  6
 20 21  2  0
 21 22  1  0
M  CHG  2   2  -1  26  -1
M  END
>  <COMPND>  (136) 
    8629 

>  <AUTHOR>  (136) 
    GENERATED BY OPEN BABEL 3.1.1

>  <MASTER>  (136) 
        0    0    0    0    0    0    0    0   58    0   58    0

>  <minimizedAffinity>  (136) 
-7.24033

>  <CNNscore>  (136) 
0.3912098706

>  <CNNaffinity>  (136) 
3.8726882935

>  <CNN_VS>  (136) 
1.5150338411

>  <CNNaffinity_variance>  (136) 
0.5836763978

$$$$
137
     RDKit          3D

 43 45  0  0  0  0  0  0  0  0999 V2000
   22.4041   71.2444   -2.1712 P   0  0  2  0  0  0  0  0  0  0  0  0
   23.7823   70.6225   -2.7468 O   0  0  0  0  0  0  0  0  0  0  0  0
   21.9524   70.6765   -0.8579 O   0  0  0  0  0  0  0  0  0  0  0  0
   21.3636   71.0866   -3.4001 O   0  0  0  0  0  0  0  0  0  0  0  0
   20.6491   69.8697   -3.5290 C   0  0  0  0  0  0  0  0  0  0  0  0
   18.5690   70.8291   -4.2545 O   0  0  0  0  0  0  0  0  0  0  0  0
   17.2651   69.1087   -2.1733 O   0  0  0  0  0  0  0  0  0  0  0  0
   16.7994   67.7171   -4.4718 O   0  0  0  0  0  0  0  0  0  0  0  0
   18.3899   68.8243   -3.0036 C   0  0  1  0  0  0  0  0  0  0  0  0
   17.9395   68.5505   -4.4233 C   0  0  2  0  0  0  0  0  0  0  0  0
   19.1902   70.1106   -3.1662 C   0  0  1  0  0  0  0  0  0  0  0  0
   17.6622   69.9514   -4.9417 C   0  0  2  0  0  0  0  0  0  0  0  0
   16.7388   68.3020   -2.0546 H   0  0  0  0  0  0  0  0  0  0  0  0
   17.0268   66.8377   -4.1318 H   0  0  0  0  0  0  0  0  0  0  0  0
   15.9327   71.2967   -6.7241 O   0  0  0  0  0  0  0  0  0  0  0  0
   18.6127   70.3261  -10.3459 O   0  0  0  0  0  0  0  0  0  0  0  0
   17.8838   70.0660   -6.3556 N   0  0  0  0  0  0  0  0  0  0  0  0
   17.2686   70.8125   -8.5260 N   0  0  0  0  0  0  0  0  0  0  0  0
   16.9535   70.7619   -7.1622 C   0  0  0  0  0  0  0  0  0  0  0  0
   19.0137   69.4925   -6.9287 C   0  0  0  0  0  0  0  0  0  0  0  0
   19.2991   69.5485   -8.2312 C   0  0  0  0  0  0  0  0  0  0  0  0
   18.3782   70.2572   -9.1434 C   0  0  0  0  0  0  0  0  0  0  0  0
   16.6346   71.2918   -9.1074 H   0  0  0  0  0  0  0  0  0  0  0  0
   22.7031   72.8329   -2.1500 O   0  0  0  0  0  0  0  0  0  0  0  0
   21.7414   74.0981   -2.4454 P   0  0  2  0  0  0  0  0  0  0  0  0
   22.3419   75.2529   -1.4846 O   0  0  0  0  0  0  0  0  0  0  0  0
   20.2800   73.8210   -2.2417 O   0  0  0  0  0  0  0  0  0  0  0  0
   22.1312   74.5675   -3.9396 O   0  0  0  0  0  0  0  0  0  0  0  0
   20.7957   74.5837   -5.8974 O   0  0  0  0  0  0  0  0  0  0  0  0
   24.4442   73.6579   -7.5951 O   0  0  0  0  0  0  0  0  0  0  0  0
   23.3246   76.2745   -7.9794 O   0  0  0  0  0  0  0  0  0  0  0  0
   23.7146   72.5250   -5.0331 O   0  0  0  0  0  0  0  0  0  0  0  0
   23.5642   74.2920   -6.6630 C   0  0  1  0  0  0  0  0  0  0  0  0
   22.5912   75.1752   -7.4465 C   0  0  1  0  0  0  0  0  0  0  0  0
   22.8072   73.2194   -5.8821 C   0  0  2  0  0  0  0  0  0  0  0  0
   21.4528   75.6775   -6.5483 C   0  0  1  0  0  0  0  0  0  0  0  0
   21.6654   73.8195   -5.0598 C   0  0  1  0  0  0  0  0  0  0  0  0
   24.9283   74.3334   -8.0939 H   0  0  0  0  0  0  0  0  0  0  0  0
   24.0407   75.9437   -8.5442 H   0  0  0  0  0  0  0  0  0  0  0  0
   24.4325   72.1495   -5.5656 H   0  0  0  0  0  0  0  0  0  0  0  0
   19.3511   75.5230   -7.6745 O   0  0  0  0  0  0  0  0  0  0  0  0
   20.3869   76.4293   -7.3426 C   0  0  0  0  0  0  0  0  0  0  0  0
   18.6654   75.9877   -8.1800 H   0  0  0  0  0  0  0  0  0  0  0  0
 25 28  1  0
 25 24  1  0
 25 26  1  1
 25 27  2  0
  1  4  1  0
  1 24  1  0
  1  2  1  6
  1  3  2  0
  6 11  1  0
  6 12  1  0
 29 36  1  0
 29 37  1  0
  9  7  1  1
  7 13  1  0
 10  8  1  1
  8 14  1  0
 37 28  1  1
  4  5  1  0
 33 30  1  6
 30 38  1  0
 34 31  1  1
 31 39  1  0
 35 32  1  1
 32 40  1  0
 41 42  1  0
 41 43  1  0
 15 19  2  0
 16 22  2  0
 12 17  1  6
 17 19  1  0
 17 20  1  0
 18 19  1  0
 18 22  1  0
 18 23  1  0
  9 10  1  0
  9 11  1  0
 10 12  1  0
 11  5  1  6
 33 34  1  0
 33 35  1  0
 34 36  1  0
 35 37  1  0
 36 42  1  6
 20 21  2  0
 21 22  1  0
M  CHG  2   2  -1  26  -1
M  END
>  <COMPND>  (137) 
    8629 

>  <AUTHOR>  (137) 
    GENERATED BY OPEN BABEL 3.1.1

>  <MASTER>  (137) 
        0    0    0    0    0    0    0    0   58    0   58    0

>  <minimizedAffinity>  (137) 
-7.89428

>  <CNNscore>  (137) 
0.3800080419

>  <CNNaffinity>  (137) 
4.1892442703

>  <CNN_VS>  (137) 
1.5919464827

>  <CNNaffinity_variance>  (137) 
0.6158101559

$$$$
138
     RDKit          3D

 43 45  0  0  0  0  0  0  0  0999 V2000
   22.3655   73.2141   -6.5462 P   0  0  2  0  0  0  0  0  0  0  0  0
   23.1139   73.9849   -7.7558 O   0  0  0  0  0  0  0  0  0  0  0  0
   23.2671   72.7320   -5.4480 O   0  0  0  0  0  0  0  0  0  0  0  0
   21.4950   72.0726   -7.2927 O   0  0  0  0  0  0  0  0  0  0  0  0
   20.1007   72.0166   -7.0466 C   0  0  0  0  0  0  0  0  0  0  0  0
   19.1605   69.8061   -7.1045 O   0  0  0  0  0  0  0  0  0  0  0  0
   17.9745   70.5824   -9.7467 O   0  0  0  0  0  0  0  0  0  0  0  0
   15.8602   70.8485   -8.0450 O   0  0  0  0  0  0  0  0  0  0  0  0
   18.1727   71.3769   -8.5785 C   0  0  1  0  0  0  0  0  0  0  0  0
   17.1600   71.0089   -7.5143 C   0  0  2  0  0  0  0  0  0  0  0  0
   19.4834   70.9440   -7.9335 C   0  0  1  0  0  0  0  0  0  0  0  0
   17.7330   69.7118   -6.9691 C   0  0  2  0  0  0  0  0  0  0  0  0
   17.1434   70.8410  -10.1762 H   0  0  0  0  0  0  0  0  0  0  0  0
   15.5397   71.7009   -8.3788 H   0  0  0  0  0  0  0  0  0  0  0  0
   17.6263   71.7685   -5.0361 O   0  0  0  0  0  0  0  0  0  0  0  0
   16.4778   68.8146   -1.6900 O   0  0  0  0  0  0  0  0  0  0  0  0
   17.4083   69.5085   -5.5854 N   0  0  0  0  0  0  0  0  0  0  0  0
   17.0543   70.2961   -3.3716 N   0  0  0  0  0  0  0  0  0  0  0  0
   17.3832   70.6086   -4.6968 C   0  0  0  0  0  0  0  0  0  0  0  0
   17.1189   68.2296   -5.1222 C   0  0  0  0  0  0  0  0  0  0  0  0
   16.8083   67.9481   -3.8550 C   0  0  0  0  0  0  0  0  0  0  0  0
   16.7600   69.0411   -2.8625 C   0  0  0  0  0  0  0  0  0  0  0  0
   17.0310   71.0466   -2.7345 H   0  0  0  0  0  0  0  0  0  0  0  0
   21.2429   74.2781   -6.0767 O   0  0  0  0  0  0  0  0  0  0  0  0
   20.9797   74.9815   -4.6452 P   0  0  2  0  0  0  0  0  0  0  0  0
   19.5324   75.6791   -4.8351 O   0  0  0  0  0  0  0  0  0  0  0  0
   22.0678   75.9207   -4.2118 O   0  0  0  0  0  0  0  0  0  0  0  0
   20.7112   73.7552   -3.6308 O   0  0  0  0  0  0  0  0  0  0  0  0
   19.7024   73.9697   -1.4970 O   0  0  0  0  0  0  0  0  0  0  0  0
   22.0374   70.6381   -0.7909 O   0  0  0  0  0  0  0  0  0  0  0  0
   19.1905   70.3485   -1.0347 O   0  0  0  0  0  0  0  0  0  0  0  0
   23.0583   72.7962   -2.4279 O   0  0  0  0  0  0  0  0  0  0  0  0
   21.2122   71.5098   -1.5684 C   0  0  1  0  0  0  0  0  0  0  0  0
   19.8441   71.6064   -0.8903 C   0  0  1  0  0  0  0  0  0  0  0  0
   21.8725   72.8852   -1.6453 C   0  0  2  0  0  0  0  0  0  0  0  0
   18.9956   72.7240   -1.5116 C   0  0  1  0  0  0  0  0  0  0  0  0
   20.9265   73.9338   -2.2332 C   0  0  1  0  0  0  0  0  0  0  0  0
   21.6241   69.7629   -0.7386 H   0  0  0  0  0  0  0  0  0  0  0  0
   19.7369   69.6515   -0.6387 H   0  0  0  0  0  0  0  0  0  0  0  0
   23.6489   72.1294   -2.0452 H   0  0  0  0  0  0  0  0  0  0  0  0
   16.6120   72.5786   -1.5906 O   0  0  0  0  0  0  0  0  0  0  0  0
   17.6907   72.9425   -0.7490 C   0  0  0  0  0  0  0  0  0  0  0  0
   15.7748   72.7122   -1.1182 H   0  0  0  0  0  0  0  0  0  0  0  0
 25 28  1  0
 25 24  1  0
 25 26  1  6
 25 27  2  0
  1  4  1  0
  1 24  1  0
  1  2  1  6
  1  3  2  0
  6 11  1  0
  6 12  1  0
 29 36  1  0
 29 37  1  0
  9  7  1  6
  7 13  1  0
 10  8  1  6
  8 14  1  0
 37 28  1  6
  4  5  1  0
 33 30  1  1
 30 38  1  0
 34 31  1  6
 31 39  1  0
 35 32  1  6
 32 40  1  0
 41 42  1  0
 41 43  1  0
 15 19  2  0
 16 22  2  0
 12 17  1  1
 17 19  1  0
 17 20  1  0
 18 19  1  0
 18 22  1  0
 18 23  1  0
  9 10  1  0
  9 11  1  0
 10 12  1  0
 11  5  1  1
 33 34  1  0
 33 35  1  0
 34 36  1  0
 35 37  1  0
 36 42  1  1
 20 21  2  0
 21 22  1  0
M  CHG  2   2  -1  26  -1
M  END
>  <COMPND>  (138) 
    8629 

>  <AUTHOR>  (138) 
    GENERATED BY OPEN BABEL 3.1.1

>  <MASTER>  (138) 
        0    0    0    0    0    0    0    0   58    0   58    0

>  <minimizedAffinity>  (138) 
-6.72682

>  <CNNscore>  (138) 
0.3634978235

>  <CNNaffinity>  (138) 
4.1592855453

>  <CNN_VS>  (138) 
1.5118912458

>  <CNNaffinity_variance>  (138) 
0.4782160819

$$$$
139
     RDKit          3D

 43 45  0  0  0  0  0  0  0  0999 V2000
   21.5513   71.2871   -2.3334 P   0  0  2  0  0  0  0  0  0  0  0  0
   21.5393   71.6800   -3.9027 O   0  0  0  0  0  0  0  0  0  0  0  0
   22.8936   71.3743   -1.6684 O   0  0  0  0  0  0  0  0  0  0  0  0
   20.8393   69.8348   -2.2911 O   0  0  0  0  0  0  0  0  0  0  0  0
   20.0865   69.4179   -3.4169 C   0  0  0  0  0  0  0  0  0  0  0  0
   18.1451   70.5556   -4.2597 O   0  0  0  0  0  0  0  0  0  0  0  0
   16.5496   68.7917   -2.4338 O   0  0  0  0  0  0  0  0  0  0  0  0
   16.2252   67.5859   -4.8582 O   0  0  0  0  0  0  0  0  0  0  0  0
   17.7300   68.4895   -3.1758 C   0  0  1  0  0  0  0  0  0  0  0  0
   17.4024   68.3385   -4.6467 C   0  0  2  0  0  0  0  0  0  0  0  0
   18.6162   69.7289   -3.1729 C   0  0  1  0  0  0  0  0  0  0  0  0
   17.2584   69.7853   -5.0875 C   0  0  2  0  0  0  0  0  0  0  0  0
   15.9680   68.0148   -2.4214 H   0  0  0  0  0  0  0  0  0  0  0  0
   16.3672   66.6733   -4.5621 H   0  0  0  0  0  0  0  0  0  0  0  0
   15.7088   71.2243   -6.9599 O   0  0  0  0  0  0  0  0  0  0  0  0
   18.7463   70.4554  -10.3398 O   0  0  0  0  0  0  0  0  0  0  0  0
   17.6207   69.9772   -6.4635 N   0  0  0  0  0  0  0  0  0  0  0  0
   17.2226   70.8404   -8.6413 N   0  0  0  0  0  0  0  0  0  0  0  0
   16.7719   70.7152   -7.3210 C   0  0  0  0  0  0  0  0  0  0  0  0
   18.8062   69.4368   -6.9498 C   0  0  0  0  0  0  0  0  0  0  0  0
   19.2210   69.5641   -8.2119 C   0  0  0  0  0  0  0  0  0  0  0  0
   18.3923   70.3206   -9.1726 C   0  0  0  0  0  0  0  0  0  0  0  0
   16.6473   71.3502   -9.2569 H   0  0  0  0  0  0  0  0  0  0  0  0
   20.4251   72.2623   -1.7059 O   0  0  0  0  0  0  0  0  0  0  0  0
   20.1897   73.8534   -1.8666 P   0  0  2  0  0  0  0  0  0  0  0  0
   21.6150   74.3857   -2.4169 O   0  0  0  0  0  0  0  0  0  0  0  0
   19.7153   74.5348   -0.6158 O   0  0  0  0  0  0  0  0  0  0  0  0
   19.1889   73.9933   -3.1251 O   0  0  0  0  0  0  0  0  0  0  0  0
   19.0462   75.4581   -4.9827 O   0  0  0  0  0  0  0  0  0  0  0  0
   15.0575   75.3494   -3.9202 O   0  0  0  0  0  0  0  0  0  0  0  0
   15.9302   73.9879   -6.2935 O   0  0  0  0  0  0  0  0  0  0  0  0
   17.0983   75.3797   -1.8674 O   0  0  0  0  0  0  0  0  0  0  0  0
   16.3742   74.8192   -4.0951 C   0  0  1  0  0  0  0  0  0  0  0  0
   16.7380   74.9184   -5.5779 C   0  0  1  0  0  0  0  0  0  0  0  0
   17.3542   75.6264   -3.2459 C   0  0  2  0  0  0  0  0  0  0  0  0
   18.2260   74.6192   -5.8044 C   0  0  1  0  0  0  0  0  0  0  0  0
   18.8070   75.2873   -3.5843 C   0  0  1  0  0  0  0  0  0  0  0  0
   14.4302   74.8409   -4.4564 H   0  0  0  0  0  0  0  0  0  0  0  0
   14.9931   74.1876   -6.1416 H   0  0  0  0  0  0  0  0  0  0  0  0
   16.1756   75.5985   -1.6658 H   0  0  0  0  0  0  0  0  0  0  0  0
   18.2565   73.7480   -8.0291 O   0  0  0  0  0  0  0  0  0  0  0  0
   18.6450   74.8658   -7.2521 C   0  0  0  0  0  0  0  0  0  0  0  0
   18.5165   73.8911   -8.9530 H   0  0  0  0  0  0  0  0  0  0  0  0
 25 28  1  0
 25 24  1  0
 25 26  1  6
 25 27  2  0
  1  4  1  0
  1 24  1  0
  1  2  1  6
  1  3  2  0
  6 11  1  0
  6 12  1  0
 29 36  1  0
 29 37  1  0
  9  7  1  1
  7 13  1  0
 10  8  1  1
  8 14  1  0
 37 28  1  6
  4  5  1  0
 33 30  1  6
 30 38  1  0
 34 31  1  6
 31 39  1  0
 35 32  1  1
 32 40  1  0
 41 42  1  0
 41 43  1  0
 15 19  2  0
 16 22  2  0
 12 17  1  6
 17 19  1  0
 17 20  1  0
 18 19  1  0
 18 22  1  0
 18 23  1  0
  9 10  1  0
  9 11  1  0
 10 12  1  0
 11  5  1  6
 33 34  1  0
 33 35  1  0
 34 36  1  0
 35 37  1  0
 36 42  1  6
 20 21  2  0
 21 22  1  0
M  CHG  2   2  -1  26  -1
M  END
>  <COMPND>  (139) 
    8629 

>  <AUTHOR>  (139) 
    GENERATED BY OPEN BABEL 3.1.1

>  <MASTER>  (139) 
        0    0    0    0    0    0    0    0   58    0   58    0

>  <minimizedAffinity>  (139) 
-6.20132

>  <CNNscore>  (139) 
0.3633478582

>  <CNNaffinity>  (139) 
4.1874227524

>  <CNN_VS>  (139) 
1.5214910507

>  <CNNaffinity_variance>  (139) 
0.2748653889

$$$$
140
     RDKit          3D

 43 45  0  0  0  0  0  0  0  0999 V2000
   16.1906   72.7333   -3.6227 P   0  0  2  0  0  0  0  0  0  0  0  0
   15.3872   71.6450   -4.5101 O   0  0  0  0  0  0  0  0  0  0  0  0
   15.3515   73.4893   -2.6349 O   0  0  0  0  0  0  0  0  0  0  0  0
   16.9658   73.6339   -4.7208 O   0  0  0  0  0  0  0  0  0  0  0  0
   16.2828   73.9841   -5.9119 C   0  0  0  0  0  0  0  0  0  0  0  0
   18.4396   73.1969   -6.6206 O   0  0  0  0  0  0  0  0  0  0  0  0
   17.3593   73.3218   -9.4149 O   0  0  0  0  0  0  0  0  0  0  0  0
   17.1853   70.6643   -8.8286 O   0  0  0  0  0  0  0  0  0  0  0  0
   16.6935   72.9623   -8.2055 C   0  0  1  0  0  0  0  0  0  0  0  0
   17.1276   71.5827   -7.7563 C   0  0  2  0  0  0  0  0  0  0  0  0
   17.2375   73.8459   -7.0898 C   0  0  1  0  0  0  0  0  0  0  0  0
   18.4933   71.8632   -7.1526 C   0  0  2  0  0  0  0  0  0  0  0  0
   17.0281   72.7710  -10.1422 H   0  0  0  0  0  0  0  0  0  0  0  0
   16.2924   70.5190   -9.1784 H   0  0  0  0  0  0  0  0  0  0  0  0
   20.7533   72.1111   -5.4767 O   0  0  0  0  0  0  0  0  0  0  0  0
   19.6527   68.3052   -3.1220 O   0  0  0  0  0  0  0  0  0  0  0  0
   18.8215   70.9514   -6.0932 N   0  0  0  0  0  0  0  0  0  0  0  0
   20.2034   70.2160   -4.3055 N   0  0  0  0  0  0  0  0  0  0  0  0
   19.9800   71.1656   -5.3106 C   0  0  0  0  0  0  0  0  0  0  0  0
   17.9986   69.8596   -5.8388 C   0  0  0  0  0  0  0  0  0  0  0  0
   18.2264   68.9624   -4.8773 C   0  0  0  0  0  0  0  0  0  0  0  0
   19.4158   69.1134   -4.0145 C   0  0  0  0  0  0  0  0  0  0  0  0
   21.0048   70.3446   -3.7479 H   0  0  0  0  0  0  0  0  0  0  0  0
   17.3803   71.8589   -2.9647 O   0  0  0  0  0  0  0  0  0  0  0  0
   18.0944   71.9568   -1.5179 P   0  0  2  0  0  0  0  0  0  0  0  0
   18.1725   70.4139   -1.0374 O   0  0  0  0  0  0  0  0  0  0  0  0
   17.4017   72.8723   -0.5505 O   0  0  0  0  0  0  0  0  0  0  0  0
   19.6229   72.3603   -1.8432 O   0  0  0  0  0  0  0  0  0  0  0  0
   21.7462   71.3081   -1.8105 O   0  0  0  0  0  0  0  0  0  0  0  0
   22.6906   74.7637    0.2432 O   0  0  0  0  0  0  0  0  0  0  0  0
   23.6349   74.4094   -2.4458 O   0  0  0  0  0  0  0  0  0  0  0  0
   20.1344   73.4774    0.6798 O   0  0  0  0  0  0  0  0  0  0  0  0
   22.0144   73.9763   -0.7408 C   0  0  1  0  0  0  0  0  0  0  0  0
   23.0649   73.3609   -1.6673 C   0  0  1  0  0  0  0  0  0  0  0  0
   21.2101   72.8836   -0.0391 C   0  0  2  0  0  0  0  0  0  0  0  0
   22.4427   72.2954   -2.5798 C   0  0  1  0  0  0  0  0  0  0  0  0
   20.6771   71.8489   -1.0318 C   0  0  1  0  0  0  0  0  0  0  0  0
   23.2028   75.4597   -0.1958 H   0  0  0  0  0  0  0  0  0  0  0  0
   24.0239   75.0757   -1.8577 H   0  0  0  0  0  0  0  0  0  0  0  0
   20.4848   74.1302    1.3050 H   0  0  0  0  0  0  0  0  0  0  0  0
   23.6710   72.2416   -4.6285 O   0  0  0  0  0  0  0  0  0  0  0  0
   23.4984   71.5582   -3.4007 C   0  0  0  0  0  0  0  0  0  0  0  0
   24.3405   71.7838   -5.1614 H   0  0  0  0  0  0  0  0  0  0  0  0
 25 28  1  0
 25 24  1  0
 25 26  1  1
 25 27  2  0
  1  4  1  0
  1 24  1  0
  1  2  1  6
  1  3  2  0
  6 11  1  0
  6 12  1  0
 29 36  1  0
 29 37  1  0
  9  7  1  6
  7 13  1  0
 10  8  1  6
  8 14  1  0
 37 28  1  6
  4  5  1  0
 33 30  1  1
 30 38  1  0
 34 31  1  6
 31 39  1  0
 35 32  1  6
 32 40  1  0
 41 42  1  0
 41 43  1  0
 15 19  2  0
 16 22  2  0
 12 17  1  1
 17 19  1  0
 17 20  1  0
 18 19  1  0
 18 22  1  0
 18 23  1  0
  9 10  1  0
  9 11  1  0
 10 12  1  0
 11  5  1  1
 33 34  1  0
 33 35  1  0
 34 36  1  0
 35 37  1  0
 36 42  1  1
 20 21  2  0
 21 22  1  0
M  CHG  2   2  -1  26  -1
M  END
>  <COMPND>  (140) 
    8629 

>  <AUTHOR>  (140) 
    GENERATED BY OPEN BABEL 3.1.1

>  <MASTER>  (140) 
        0    0    0    0    0    0    0    0   58    0   58    0

>  <minimizedAffinity>  (140) 
-7.14804

>  <CNNscore>  (140) 
0.3368428051

>  <CNNaffinity>  (140) 
3.6961598396

>  <CNN_VS>  (140) 
1.2450248003

>  <CNNaffinity_variance>  (140) 
0.8430562019

$$$$
141
     RDKit          3D

 43 45  0  0  0  0  0  0  0  0999 V2000
   19.5212   71.9956   -1.4661 P   0  0  2  0  0  0  0  0  0  0  0  0
   18.5976   71.5769   -0.2055 O   0  0  0  0  0  0  0  0  0  0  0  0
   20.9603   72.2629   -1.1364 O   0  0  0  0  0  0  0  0  0  0  0  0
   18.7164   73.2234   -2.1464 O   0  0  0  0  0  0  0  0  0  0  0  0
   17.4070   73.5106   -1.6871 C   0  0  0  0  0  0  0  0  0  0  0  0
   16.6633   72.5535   -3.7619 O   0  0  0  0  0  0  0  0  0  0  0  0
   14.3084   74.3979   -3.5526 O   0  0  0  0  0  0  0  0  0  0  0  0
   13.2760   72.0181   -2.7118 O   0  0  0  0  0  0  0  0  0  0  0  0
   15.0108   73.7106   -2.5184 C   0  0  1  0  0  0  0  0  0  0  0  0
   14.6607   72.2372   -2.5346 C   0  0  2  0  0  0  0  0  0  0  0  0
   16.4887   73.6904   -2.8882 C   0  0  1  0  0  0  0  0  0  0  0  0
   15.4873   71.7297   -3.7039 C   0  0  2  0  0  0  0  0  0  0  0  0
   13.3622   74.4239   -3.3385 H   0  0  0  0  0  0  0  0  0  0  0  0
   12.7936   72.3579   -1.9421 H   0  0  0  0  0  0  0  0  0  0  0  0
   16.1813   70.0041   -5.8295 O   0  0  0  0  0  0  0  0  0  0  0  0
   16.9964   66.4940   -2.9561 O   0  0  0  0  0  0  0  0  0  0  0  0
   15.8851   70.3600   -3.5398 N   0  0  0  0  0  0  0  0  0  0  0  0
   16.5868   68.2578   -4.3970 N   0  0  0  0  0  0  0  0  0  0  0  0
   16.2123   69.5790   -4.6728 C   0  0  0  0  0  0  0  0  0  0  0  0
   15.9481   69.8044   -2.2665 C   0  0  0  0  0  0  0  0  0  0  0  0
   16.3059   68.5424   -2.0207 C   0  0  0  0  0  0  0  0  0  0  0  0
   16.6634   67.6592   -3.1494 C   0  0  0  0  0  0  0  0  0  0  0  0
   16.8187   67.6948   -5.1710 H   0  0  0  0  0  0  0  0  0  0  0  0
   19.2839   70.7835   -2.5090 O   0  0  0  0  0  0  0  0  0  0  0  0
   20.0292   70.4146   -3.8951 P   0  0  2  0  0  0  0  0  0  0  0  0
   19.6595   68.8544   -4.1113 O   0  0  0  0  0  0  0  0  0  0  0  0
   21.5015   70.7084   -3.8994 O   0  0  0  0  0  0  0  0  0  0  0  0
   19.1883   71.1939   -5.0311 O   0  0  0  0  0  0  0  0  0  0  0  0
   19.8894   71.2488   -7.2943 O   0  0  0  0  0  0  0  0  0  0  0  0
   17.6022   74.6862   -7.2286 O   0  0  0  0  0  0  0  0  0  0  0  0
   16.6255   72.3591   -8.5994 O   0  0  0  0  0  0  0  0  0  0  0  0
   19.2411   73.9983   -4.9437 O   0  0  0  0  0  0  0  0  0  0  0  0
   17.9511   73.3463   -6.8704 C   0  0  1  0  0  0  0  0  0  0  0  0
   17.9685   72.4985   -8.1439 C   0  0  1  0  0  0  0  0  0  0  0  0
   19.3274   73.3490   -6.2076 C   0  0  2  0  0  0  0  0  0  0  0  0
   18.5901   71.1198   -7.8832 C   0  0  1  0  0  0  0  0  0  0  0  0
   19.8758   71.9310   -6.0388 C   0  0  1  0  0  0  0  0  0  0  0  0
   16.7291   74.6915   -7.6495 H   0  0  0  0  0  0  0  0  0  0  0  0
   16.2445   73.2368   -8.7598 H   0  0  0  0  0  0  0  0  0  0  0  0
   18.8929   74.8951   -5.0641 H   0  0  0  0  0  0  0  0  0  0  0  0
   18.5968   71.1923  -10.2714 O   0  0  0  0  0  0  0  0  0  0  0  0
   18.7616   70.3170   -9.1709 C   0  0  0  0  0  0  0  0  0  0  0  0
   18.7036   70.6951  -11.0980 H   0  0  0  0  0  0  0  0  0  0  0  0
 25 28  1  0
 25 24  1  0
 25 26  1  6
 25 27  2  0
  1  4  1  0
  1 24  1  0
  1  2  1  1
  1  3  2  0
  6 11  1  0
  6 12  1  0
 29 36  1  0
 29 37  1  0
  9  7  1  6
  7 13  1  0
 10  8  1  6
  8 14  1  0
 37 28  1  1
  4  5  1  0
 33 30  1  6
 30 38  1  0
 34 31  1  1
 31 39  1  0
 35 32  1  1
 32 40  1  0
 41 42  1  0
 41 43  1  0
 15 19  2  0
 16 22  2  0
 12 17  1  1
 17 19  1  0
 17 20  1  0
 18 19  1  0
 18 22  1  0
 18 23  1  0
  9 10  1  0
  9 11  1  0
 10 12  1  0
 11  5  1  1
 33 34  1  0
 33 35  1  0
 34 36  1  0
 35 37  1  0
 36 42  1  6
 20 21  2  0
 21 22  1  0
M  CHG  2   2  -1  26  -1
M  END
>  <COMPND>  (141) 
    8629 

>  <AUTHOR>  (141) 
    GENERATED BY OPEN BABEL 3.1.1

>  <MASTER>  (141) 
        0    0    0    0    0    0    0    0   58    0   58    0

>  <minimizedAffinity>  (141) 
-6.43095

>  <CNNscore>  (141) 
0.6500345469

>  <CNNaffinity>  (141) 
4.2093110085

>  <CNN_VS>  (141) 
2.7361974716

>  <CNNaffinity_variance>  (141) 
0.4851080775

$$$$
142
     RDKit          3D

 43 45  0  0  0  0  0  0  0  0999 V2000
   20.4998   70.5367   -1.6670 P   0  0  2  0  0  0  0  0  0  0  0  0
   20.1914   69.3261   -0.6390 O   0  0  0  0  0  0  0  0  0  0  0  0
   19.6859   71.7778   -1.4471 O   0  0  0  0  0  0  0  0  0  0  0  0
   20.3577   69.8526   -3.1264 O   0  0  0  0  0  0  0  0  0  0  0  0
   19.4581   68.7687   -3.2803 C   0  0  0  0  0  0  0  0  0  0  0  0
   17.7724   70.2410   -4.1547 O   0  0  0  0  0  0  0  0  0  0  0  0
   15.8024   68.6119   -2.5874 O   0  0  0  0  0  0  0  0  0  0  0  0
   15.4960   67.6422   -5.1177 O   0  0  0  0  0  0  0  0  0  0  0  0
   16.9807   68.1893   -3.2717 C   0  0  1  0  0  0  0  0  0  0  0  0
   16.7495   68.1931   -4.7684 C   0  0  2  0  0  0  0  0  0  0  0  0
   18.0336   69.2786   -3.1098 C   0  0  1  0  0  0  0  0  0  0  0  0
   16.8505   69.6725   -5.0991 C   0  0  2  0  0  0  0  0  0  0  0  0
   15.1156   67.9320   -2.6765 H   0  0  0  0  0  0  0  0  0  0  0  0
   15.4814   66.7000   -4.8878 H   0  0  0  0  0  0  0  0  0  0  0  0
   15.5347   71.2547   -7.0338 O   0  0  0  0  0  0  0  0  0  0  0  0
   18.8288   70.4906  -10.1653 O   0  0  0  0  0  0  0  0  0  0  0  0
   17.3421   69.9044   -6.4280 N   0  0  0  0  0  0  0  0  0  0  0  0
   17.1761   70.8731   -8.5914 N   0  0  0  0  0  0  0  0  0  0  0  0
   16.6042   70.7141   -7.3227 C   0  0  0  0  0  0  0  0  0  0  0  0
   18.5434   69.3321   -6.8322 C   0  0  0  0  0  0  0  0  0  0  0  0
   19.0744   69.4925   -8.0461 C   0  0  0  0  0  0  0  0  0  0  0  0
   18.3666   70.3240   -9.0408 C   0  0  0  0  0  0  0  0  0  0  0  0
   16.6795   71.4329   -9.2316 H   0  0  0  0  0  0  0  0  0  0  0  0
   22.0960   70.7435   -1.5166 O   0  0  0  0  0  0  0  0  0  0  0  0
   23.0905   71.8389   -2.1679 P   0  0  2  0  0  0  0  0  0  0  0  0
   24.4931   71.0416   -2.2879 O   0  0  0  0  0  0  0  0  0  0  0  0
   23.1739   73.1269   -1.4012 O   0  0  0  0  0  0  0  0  0  0  0  0
   22.5809   71.9988   -3.6909 O   0  0  0  0  0  0  0  0  0  0  0  0
   23.1204   74.0556   -4.7374 O   0  0  0  0  0  0  0  0  0  0  0  0
   20.2509   72.7031   -7.3808 O   0  0  0  0  0  0  0  0  0  0  0  0
   23.0147   72.6942   -8.1615 O   0  0  0  0  0  0  0  0  0  0  0  0
   19.9189   72.2621   -4.5392 O   0  0  0  0  0  0  0  0  0  0  0  0
   21.3378   72.5755   -6.4601 C   0  0  1  0  0  0  0  0  0  0  0  0
   22.5252   73.3705   -7.0068 C   0  0  1  0  0  0  0  0  0  0  0  0
   20.9063   73.1206   -5.0999 C   0  0  2  0  0  0  0  0  0  0  0  0
   23.6346   73.5030   -5.9547 C   0  0  1  0  0  0  0  0  0  0  0  0
   22.0931   73.2588   -4.1445 C   0  0  1  0  0  0  0  0  0  0  0  0
   20.5181   72.3583   -8.2464 H   0  0  0  0  0  0  0  0  0  0  0  0
   22.3043   72.6167   -8.8177 H   0  0  0  0  0  0  0  0  0  0  0  0
   19.1729   72.1831   -5.1533 H   0  0  0  0  0  0  0  0  0  0  0  0
   24.2463   75.2901   -7.4179 O   0  0  0  0  0  0  0  0  0  0  0  0
   24.7594   74.4239   -6.4226 C   0  0  0  0  0  0  0  0  0  0  0  0
   24.9511   75.8823   -7.7249 H   0  0  0  0  0  0  0  0  0  0  0  0
 25 28  1  0
 25 24  1  0
 25 26  1  6
 25 27  2  0
  1  4  1  0
  1 24  1  0
  1  2  1  1
  1  3  2  0
  6 11  1  0
  6 12  1  0
 29 36  1  0
 29 37  1  0
  9  7  1  1
  7 13  1  0
 10  8  1  1
  8 14  1  0
 37 28  1  6
  4  5  1  0
 33 30  1  6
 30 38  1  0
 34 31  1  6
 31 39  1  0
 35 32  1  1
 32 40  1  0
 41 42  1  0
 41 43  1  0
 15 19  2  0
 16 22  2  0
 12 17  1  6
 17 19  1  0
 17 20  1  0
 18 19  1  0
 18 22  1  0
 18 23  1  0
  9 10  1  0
  9 11  1  0
 10 12  1  0
 11  5  1  6
 33 34  1  0
 33 35  1  0
 34 36  1  0
 35 37  1  0
 36 42  1  6
 20 21  2  0
 21 22  1  0
M  CHG  2   2  -1  26  -1
M  END
>  <COMPND>  (142) 
    8629 

>  <AUTHOR>  (142) 
    GENERATED BY OPEN BABEL 3.1.1

>  <MASTER>  (142) 
        0    0    0    0    0    0    0    0   58    0   58    0

>  <minimizedAffinity>  (142) 
-8.16170

>  <CNNscore>  (142) 
0.6226778030

>  <CNNaffinity>  (142) 
4.4384164810

>  <CNN_VS>  (142) 
2.7637033463

>  <CNNaffinity_variance>  (142) 
0.5992144942

$$$$
143
     RDKit          3D

 43 45  0  0  0  0  0  0  0  0999 V2000
   20.4683   72.3434   -4.3795 P   0  0  2  0  0  0  0  0  0  0  0  0
   19.5111   72.3753   -3.0756 O   0  0  0  0  0  0  0  0  0  0  0  0
   20.8576   73.6907   -4.9130 O   0  0  0  0  0  0  0  0  0  0  0  0
   19.6836   71.3780   -5.4139 O   0  0  0  0  0  0  0  0  0  0  0  0
   19.8298   71.6148   -6.8033 C   0  0  0  0  0  0  0  0  0  0  0  0
   18.4571   69.6516   -6.6151 O   0  0  0  0  0  0  0  0  0  0  0  0
   17.7561   70.0937   -9.4968 O   0  0  0  0  0  0  0  0  0  0  0  0
   15.5730   71.0823   -8.1957 O   0  0  0  0  0  0  0  0  0  0  0  0
   17.9889   71.0536   -8.4674 C   0  0  1  0  0  0  0  0  0  0  0  0
   16.8116   71.1001   -7.5158 C   0  0  2  0  0  0  0  0  0  0  0  0
   19.1008   70.5213   -7.5720 C   0  0  1  0  0  0  0  0  0  0  0  0
   17.0357   69.8538   -6.6763 C   0  0  2  0  0  0  0  0  0  0  0  0
   17.0500   70.4118  -10.0817 H   0  0  0  0  0  0  0  0  0  0  0  0
   15.4774   71.8957   -8.7153 H   0  0  0  0  0  0  0  0  0  0  0  0
   16.6115   67.7024   -4.8961 O   0  0  0  0  0  0  0  0  0  0  0  0
   15.0778   70.5103   -1.5788 O   0  0  0  0  0  0  0  0  0  0  0  0
   16.5267   69.9941   -5.3411 N   0  0  0  0  0  0  0  0  0  0  0  0
   15.8483   69.1023   -3.2457 N   0  0  0  0  0  0  0  0  0  0  0  0
   16.3498   68.8497   -4.5289 C   0  0  0  0  0  0  0  0  0  0  0  0
   16.2092   71.2555   -4.8495 C   0  0  0  0  0  0  0  0  0  0  0  0
   15.7306   71.4793   -3.6239 C   0  0  0  0  0  0  0  0  0  0  0  0
   15.5165   70.3374   -2.7117 C   0  0  0  0  0  0  0  0  0  0  0  0
   15.7165   68.3200   -2.6622 H   0  0  0  0  0  0  0  0  0  0  0  0
   21.7093   71.4267   -3.8970 O   0  0  0  0  0  0  0  0  0  0  0  0
   23.2324   71.8151   -3.5202 P   0  0  2  0  0  0  0  0  0  0  0  0
   23.8228   72.3938   -4.9109 O   0  0  0  0  0  0  0  0  0  0  0  0
   24.0279   70.6859   -2.9320 O   0  0  0  0  0  0  0  0  0  0  0  0
   23.0996   73.1087   -2.5641 O   0  0  0  0  0  0  0  0  0  0  0  0
   23.9784   74.1833   -0.6433 O   0  0  0  0  0  0  0  0  0  0  0  0
   20.1693   73.3811    0.7343 O   0  0  0  0  0  0  0  0  0  0  0  0
   20.9018   76.0802    0.0812 O   0  0  0  0  0  0  0  0  0  0  0  0
   21.5418   71.4467   -0.9251 O   0  0  0  0  0  0  0  0  0  0  0  0
   21.1564   73.7240   -0.2422 C   0  0  1  0  0  0  0  0  0  0  0  0
   21.8425   75.0170    0.2031 C   0  0  1  0  0  0  0  0  0  0  0  0
   22.1701   72.5863   -0.3480 C   0  0  2  0  0  0  0  0  0  0  0  0
   23.0873   75.3047   -0.6471 C   0  0  1  0  0  0  0  0  0  0  0  0
   23.3917   72.9933   -1.1739 C   0  0  1  0  0  0  0  0  0  0  0  0
   19.5222   74.0992    0.8061 H   0  0  0  0  0  0  0  0  0  0  0  0
   20.1204   75.8858    0.6225 H   0  0  0  0  0  0  0  0  0  0  0  0
   20.7703   71.1988   -0.3930 H   0  0  0  0  0  0  0  0  0  0  0  0
   23.5475   76.6912    1.2436 O   0  0  0  0  0  0  0  0  0  0  0  0
   23.8751   76.5023   -0.1207 C   0  0  0  0  0  0  0  0  0  0  0  0
   24.0418   77.4500    1.5922 H   0  0  0  0  0  0  0  0  0  0  0  0
 25 28  1  0
 25 24  1  0
 25 26  1  6
 25 27  2  0
  1  4  1  0
  1 24  1  0
  1  2  1  1
  1  3  2  0
  6 11  1  0
  6 12  1  0
 29 36  1  0
 29 37  1  0
  9  7  1  6
  7 13  1  0
 10  8  1  6
  8 14  1  0
 37 28  1  6
  4  5  1  0
 33 30  1  1
 30 38  1  0
 34 31  1  6
 31 39  1  0
 35 32  1  6
 32 40  1  0
 41 42  1  0
 41 43  1  0
 15 19  2  0
 16 22  2  0
 12 17  1  1
 17 19  1  0
 17 20  1  0
 18 19  1  0
 18 22  1  0
 18 23  1  0
  9 10  1  0
  9 11  1  0
 10 12  1  0
 11  5  1  1
 33 34  1  0
 33 35  1  0
 34 36  1  0
 35 37  1  0
 36 42  1  1
 20 21  2  0
 21 22  1  0
M  CHG  2   2  -1  26  -1
M  END
>  <COMPND>  (143) 
    8629 

>  <AUTHOR>  (143) 
    GENERATED BY OPEN BABEL 3.1.1

>  <MASTER>  (143) 
        0    0    0    0    0    0    0    0   58    0   58    0

>  <minimizedAffinity>  (143) 
-7.39536

>  <CNNscore>  (143) 
0.5906066895

>  <CNNaffinity>  (143) 
4.3533601761

>  <CNN_VS>  (143) 
2.5711236000

>  <CNNaffinity_variance>  (143) 
0.1744733304

$$$$
144
     RDKit          3D

 43 45  0  0  0  0  0  0  0  0999 V2000
   18.9950   69.4147   -4.0080 P   0  0  2  0  0  0  0  0  0  0  0  0
   20.4852   69.9907   -4.2629 O   0  0  0  0  0  0  0  0  0  0  0  0
   18.9388   68.0938   -3.2985 O   0  0  0  0  0  0  0  0  0  0  0  0
   18.3070   69.4558   -5.4719 O   0  0  0  0  0  0  0  0  0  0  0  0
   19.0201   70.0592   -6.5374 C   0  0  0  0  0  0  0  0  0  0  0  0
   16.8094   70.1743   -7.4717 O   0  0  0  0  0  0  0  0  0  0  0  0
   18.1534   70.5105  -10.1309 O   0  0  0  0  0  0  0  0  0  0  0  0
   17.4322   73.0642   -9.5023 O   0  0  0  0  0  0  0  0  0  0  0  0
   18.5478   71.0042   -8.8518 C   0  0  1  0  0  0  0  0  0  0  0  0
   17.6630   72.1621   -8.4395 C   0  0  2  0  0  0  0  0  0  0  0  0
   18.1948   69.9481   -7.8120 C   0  0  1  0  0  0  0  0  0  0  0  0
   16.3982   71.4487   -7.9930 C   0  0  2  0  0  0  0  0  0  0  0  0
   18.3691   71.1679  -10.8116 H   0  0  0  0  0  0  0  0  0  0  0  0
   18.2664   73.4926   -9.7500 H   0  0  0  0  0  0  0  0  0  0  0  0
   14.4721   73.4556   -8.4831 O   0  0  0  0  0  0  0  0  0  0  0  0
   13.7729   74.1412   -3.9796 O   0  0  0  0  0  0  0  0  0  0  0  0
   15.6969   72.1678   -6.9671 N   0  0  0  0  0  0  0  0  0  0  0  0
   14.1254   73.7952   -6.2403 N   0  0  0  0  0  0  0  0  0  0  0  0
   14.7497   73.1572   -7.3197 C   0  0  0  0  0  0  0  0  0  0  0  0
   15.9507   71.8892   -5.6285 C   0  0  0  0  0  0  0  0  0  0  0  0
   15.3477   72.5075   -4.6109 C   0  0  0  0  0  0  0  0  0  0  0  0
   14.3445   73.5544   -4.8932 C   0  0  0  0  0  0  0  0  0  0  0  0
   13.4620   74.4885   -6.4619 H   0  0  0  0  0  0  0  0  0  0  0  0
   18.2646   70.6283   -3.2291 O   0  0  0  0  0  0  0  0  0  0  0  0
   18.3834   71.1305   -1.6972 P   0  0  2  0  0  0  0  0  0  0  0  0
   18.8607   69.8018   -0.9071 O   0  0  0  0  0  0  0  0  0  0  0  0
   17.1307   71.7564   -1.1559 O   0  0  0  0  0  0  0  0  0  0  0  0
   19.6746   72.0988   -1.6837 O   0  0  0  0  0  0  0  0  0  0  0  0
   21.8899   71.2570   -1.6722 O   0  0  0  0  0  0  0  0  0  0  0  0
   22.5760   74.9436    0.0568 O   0  0  0  0  0  0  0  0  0  0  0  0
   23.4395   74.4590   -2.6391 O   0  0  0  0  0  0  0  0  0  0  0  0
   20.1774   73.4632    0.7164 O   0  0  0  0  0  0  0  0  0  0  0  0
   21.9401   74.0177   -0.8286 C   0  0  1  0  0  0  0  0  0  0  0  0
   23.0068   73.4294   -1.7542 C   0  0  1  0  0  0  0  0  0  0  0  0
   21.2756   72.9158   -0.0053 C   0  0  2  0  0  0  0  0  0  0  0  0
   22.4547   72.2386   -2.5493 C   0  0  1  0  0  0  0  0  0  0  0  0
   20.8060   71.7573   -0.8870 C   0  0  1  0  0  0  0  0  0  0  0  0
   22.9994   75.6461   -0.4596 H   0  0  0  0  0  0  0  0  0  0  0  0
   23.7853   75.2051   -2.1244 H   0  0  0  0  0  0  0  0  0  0  0  0
   20.4878   74.1954    1.2709 H   0  0  0  0  0  0  0  0  0  0  0  0
   23.7038   72.2288   -4.5861 O   0  0  0  0  0  0  0  0  0  0  0  0
   23.5428   71.5386   -3.3605 C   0  0  0  0  0  0  0  0  0  0  0  0
   24.3936   71.7946   -5.1128 H   0  0  0  0  0  0  0  0  0  0  0  0
 25 28  1  0
 25 24  1  0
 25 26  1  1
 25 27  2  0
  1  4  1  0
  1 24  1  0
  1  2  1  6
  1  3  2  0
  6 11  1  0
  6 12  1  0
 29 36  1  0
 29 37  1  0
  9  7  1  6
  7 13  1  0
 10  8  1  6
  8 14  1  0
 37 28  1  6
  4  5  1  0
 33 30  1  1
 30 38  1  0
 34 31  1  6
 31 39  1  0
 35 32  1  6
 32 40  1  0
 41 42  1  0
 41 43  1  0
 15 19  2  0
 16 22  2  0
 12 17  1  1
 17 19  1  0
 17 20  1  0
 18 19  1  0
 18 22  1  0
 18 23  1  0
  9 10  1  0
  9 11  1  0
 10 12  1  0
 11  5  1  1
 33 34  1  0
 33 35  1  0
 34 36  1  0
 35 37  1  0
 36 42  1  1
 20 21  2  0
 21 22  1  0
M  CHG  2   2  -1  26  -1
M  END
>  <COMPND>  (144) 
    8629 

>  <AUTHOR>  (144) 
    GENERATED BY OPEN BABEL 3.1.1

>  <MASTER>  (144) 
        0    0    0    0    0    0    0    0   58    0   58    0

>  <minimizedAffinity>  (144) 
-7.98120

>  <CNNscore>  (144) 
0.5223045945

>  <CNNaffinity>  (144) 
4.2657513618

>  <CNN_VS>  (144) 
2.2280216217

>  <CNNaffinity_variance>  (144) 
0.1515485495

$$$$
145
     RDKit          3D

 43 45  0  0  0  0  0  0  0  0999 V2000
   20.9235   70.6122   -1.3007 P   0  0  2  0  0  0  0  0  0  0  0  0
   22.4995   70.6398   -0.9365 O   0  0  0  0  0  0  0  0  0  0  0  0
   20.1222   69.5752   -0.5698 O   0  0  0  0  0  0  0  0  0  0  0  0
   20.8996   70.5093   -2.9152 O   0  0  0  0  0  0  0  0  0  0  0  0
   20.1312   69.4815   -3.5159 C   0  0  0  0  0  0  0  0  0  0  0  0
   18.1533   70.5600   -4.3517 O   0  0  0  0  0  0  0  0  0  0  0  0
   16.6200   68.7658   -2.5021 O   0  0  0  0  0  0  0  0  0  0  0  0
   16.3109   67.5350   -4.9159 O   0  0  0  0  0  0  0  0  0  0  0  0
   17.8028   68.4909   -3.2509 C   0  0  1  0  0  0  0  0  0  0  0  0
   17.4686   68.3209   -4.7182 C   0  0  2  0  0  0  0  0  0  0  0  0
   18.6547   69.7539   -3.2630 C   0  0  1  0  0  0  0  0  0  0  0  0
   17.2819   69.7601   -5.1677 C   0  0  2  0  0  0  0  0  0  0  0  0
   16.0600   67.9735   -2.4801 H   0  0  0  0  0  0  0  0  0  0  0  0
   16.4799   66.6287   -4.6148 H   0  0  0  0  0  0  0  0  0  0  0  0
   15.8493   71.4090   -6.9583 O   0  0  0  0  0  0  0  0  0  0  0  0
   18.7033   70.4207  -10.4395 O   0  0  0  0  0  0  0  0  0  0  0  0
   17.6287   69.9523   -6.5476 N   0  0  0  0  0  0  0  0  0  0  0  0
   17.2716   70.9157   -8.6902 N   0  0  0  0  0  0  0  0  0  0  0  0
   16.8427   70.8008   -7.3617 C   0  0  0  0  0  0  0  0  0  0  0  0
   18.7374   69.3036   -7.0803 C   0  0  0  0  0  0  0  0  0  0  0  0
   19.1323   69.4227   -8.3496 C   0  0  0  0  0  0  0  0  0  0  0  0
   18.3657   70.2905   -9.2669 C   0  0  0  0  0  0  0  0  0  0  0  0
   16.7391   71.5013   -9.2761 H   0  0  0  0  0  0  0  0  0  0  0  0
   20.4604   72.1365   -1.0268 O   0  0  0  0  0  0  0  0  0  0  0  0
   19.3945   73.0767   -1.7968 P   0  0  2  0  0  0  0  0  0  0  0  0
   19.8010   74.5676   -1.3178 O   0  0  0  0  0  0  0  0  0  0  0  0
   17.9596   72.7148   -1.5442 O   0  0  0  0  0  0  0  0  0  0  0  0
   19.8378   73.0117   -3.3474 O   0  0  0  0  0  0  0  0  0  0  0  0
   21.1133   74.6813   -4.4437 O   0  0  0  0  0  0  0  0  0  0  0  0
   19.0409   73.1954   -7.6915 O   0  0  0  0  0  0  0  0  0  0  0  0
   21.8393   72.6148   -7.4087 O   0  0  0  0  0  0  0  0  0  0  0  0
   17.7170   73.4567   -5.1305 O   0  0  0  0  0  0  0  0  0  0  0  0
   19.7157   73.1234   -6.4326 C   0  0  1  0  0  0  0  0  0  0  0  0
   21.1569   73.5963   -6.6333 C   0  0  1  0  0  0  0  0  0  0  0  0
   18.9920   74.0164   -5.4265 C   0  0  2  0  0  0  0  0  0  0  0  0
   21.8652   73.8013   -5.2874 C   0  0  1  0  0  0  0  0  0  0  0  0
   19.8042   74.1941   -4.1424 C   0  0  1  0  0  0  0  0  0  0  0  0
   19.4951   72.6302   -8.3347 H   0  0  0  0  0  0  0  0  0  0  0  0
   21.3817   72.4945   -8.2556 H   0  0  0  0  0  0  0  0  0  0  0  0
   17.2126   73.3496   -5.9514 H   0  0  0  0  0  0  0  0  0  0  0  0
   24.1697   73.3913   -5.7670 O   0  0  0  0  0  0  0  0  0  0  0  0
   23.2498   74.4223   -5.4585 C   0  0  0  0  0  0  0  0  0  0  0  0
   25.0553   73.7719   -5.8790 H   0  0  0  0  0  0  0  0  0  0  0  0
 25 28  1  0
 25 24  1  0
 25 26  1  1
 25 27  2  0
  1  4  1  0
  1 24  1  0
  1  2  1  1
  1  3  2  0
  6 11  1  0
  6 12  1  0
 29 36  1  0
 29 37  1  0
  9  7  1  1
  7 13  1  0
 10  8  1  1
  8 14  1  0
 37 28  1  6
  4  5  1  0
 33 30  1  6
 30 38  1  0
 34 31  1  6
 31 39  1  0
 35 32  1  1
 32 40  1  0
 41 42  1  0
 41 43  1  0
 15 19  2  0
 16 22  2  0
 12 17  1  6
 17 19  1  0
 17 20  1  0
 18 19  1  0
 18 22  1  0
 18 23  1  0
  9 10  1  0
  9 11  1  0
 10 12  1  0
 11  5  1  6
 33 34  1  0
 33 35  1  0
 34 36  1  0
 35 37  1  0
 36 42  1  6
 20 21  2  0
 21 22  1  0
M  CHG  2   2  -1  26  -1
M  END
>  <COMPND>  (145) 
    8629 

>  <AUTHOR>  (145) 
    GENERATED BY OPEN BABEL 3.1.1

>  <MASTER>  (145) 
        0    0    0    0    0    0    0    0   58    0   58    0

>  <minimizedAffinity>  (145) 
-7.83832

>  <CNNscore>  (145) 
0.5163545609

>  <CNNaffinity>  (145) 
4.3107752800

>  <CNN_VS>  (145) 
2.2258884907

>  <CNNaffinity_variance>  (145) 
0.7600219250

$$$$
146
     RDKit          3D

 43 45  0  0  0  0  0  0  0  0999 V2000
   22.3843   71.4253   -2.8296 P   0  0  2  0  0  0  0  0  0  0  0  0
   22.0775   71.9066   -4.3435 O   0  0  0  0  0  0  0  0  0  0  0  0
   23.7248   70.7820   -2.6284 O   0  0  0  0  0  0  0  0  0  0  0  0
   21.1032   70.5151   -2.4444 O   0  0  0  0  0  0  0  0  0  0  0  0
   20.3660   69.9078   -3.4910 C   0  0  0  0  0  0  0  0  0  0  0  0
   18.2809   70.7689   -4.3186 O   0  0  0  0  0  0  0  0  0  0  0  0
   16.9577   68.9507   -2.3350 O   0  0  0  0  0  0  0  0  0  0  0  0
   16.6927   67.5728   -4.6733 O   0  0  0  0  0  0  0  0  0  0  0  0
   18.1397   68.7383   -3.1051 C   0  0  1  0  0  0  0  0  0  0  0  0
   17.7829   68.4635   -4.5511 C   0  0  2  0  0  0  0  0  0  0  0  0
   18.8787   70.0668   -3.2068 C   0  0  1  0  0  0  0  0  0  0  0  0
   17.4607   69.8560   -5.0662 C   0  0  2  0  0  0  0  0  0  0  0  0
   16.4691   68.1159   -2.2560 H   0  0  0  0  0  0  0  0  0  0  0  0
   16.9473   66.7012   -4.3325 H   0  0  0  0  0  0  0  0  0  0  0  0
   15.8927   71.3561   -6.8742 O   0  0  0  0  0  0  0  0  0  0  0  0
   18.6776   70.3528  -10.4067 O   0  0  0  0  0  0  0  0  0  0  0  0
   17.7531   70.0041   -6.4640 N   0  0  0  0  0  0  0  0  0  0  0  0
   17.2807   70.8555   -8.6316 N   0  0  0  0  0  0  0  0  0  0  0  0
   16.9010   70.7784   -7.2856 C   0  0  0  0  0  0  0  0  0  0  0  0
   18.8742   69.3858   -7.0068 C   0  0  0  0  0  0  0  0  0  0  0  0
   19.2218   69.4681   -8.2928 C   0  0  0  0  0  0  0  0  0  0  0  0
   18.3848   70.2580   -9.2188 C   0  0  0  0  0  0  0  0  0  0  0  0
   16.7018   71.3892   -9.2230 H   0  0  0  0  0  0  0  0  0  0  0  0
   22.1471   72.7706   -1.9654 O   0  0  0  0  0  0  0  0  0  0  0  0
   21.9388   72.9893   -0.3774 P   0  0  2  0  0  0  0  0  0  0  0  0
   23.1848   72.1888    0.2739 O   0  0  0  0  0  0  0  0  0  0  0  0
   20.5931   72.5604    0.1315 O   0  0  0  0  0  0  0  0  0  0  0  0
   22.2816   74.5471   -0.1312 O   0  0  0  0  0  0  0  0  0  0  0  0
   23.3843   75.9133   -1.7231 O   0  0  0  0  0  0  0  0  0  0  0  0
   24.4888   77.8966    1.7261 O   0  0  0  0  0  0  0  0  0  0  0  0
   22.5543   79.0830   -0.0341 O   0  0  0  0  0  0  0  0  0  0  0  0
   24.3558   75.0050    1.7028 O   0  0  0  0  0  0  0  0  0  0  0  0
   23.6169   77.1441    0.8782 C   0  0  1  0  0  0  0  0  0  0  0  0
   23.3577   77.9611   -0.3891 C   0  0  1  0  0  0  0  0  0  0  0  0
   24.2825   75.8132    0.5331 C   0  0  2  0  0  0  0  0  0  0  0  0
   22.6525   77.1159   -1.4585 C   0  0  1  0  0  0  0  0  0  0  0  0
   23.5288   75.0753   -0.5748 C   0  0  1  0  0  0  0  0  0  0  0  0
   24.0719   78.7427    1.9493 H   0  0  0  0  0  0  0  0  0  0  0  0
   23.0107   79.6080    0.6421 H   0  0  0  0  0  0  0  0  0  0  0  0
   24.8354   75.4832    2.3965 H   0  0  0  0  0  0  0  0  0  0  0  0
   21.2763   78.5279   -2.8081 O   0  0  0  0  0  0  0  0  0  0  0  0
   22.5253   77.8618   -2.7850 C   0  0  0  0  0  0  0  0  0  0  0  0
   21.1816   79.0072   -3.6465 H   0  0  0  0  0  0  0  0  0  0  0  0
 25 28  1  0
 25 24  1  0
 25 26  1  1
 25 27  2  0
  1  4  1  0
  1 24  1  0
  1  2  1  6
  1  3  2  0
  6 11  1  0
  6 12  1  0
 29 36  1  0
 29 37  1  0
  9  7  1  1
  7 13  1  0
 10  8  1  1
  8 14  1  0
 37 28  1  1
  4  5  1  0
 33 30  1  1
 30 38  1  0
 34 31  1  1
 31 39  1  0
 35 32  1  1
 32 40  1  0
 41 42  1  0
 41 43  1  0
 15 19  2  0
 16 22  2  0
 12 17  1  6
 17 19  1  0
 17 20  1  0
 18 19  1  0
 18 22  1  0
 18 23  1  0
  9 10  1  0
  9 11  1  0
 10 12  1  0
 11  5  1  6
 33 34  1  0
 33 35  1  0
 34 36  1  0
 35 37  1  0
 36 42  1  6
 20 21  2  0
 21 22  1  0
M  CHG  2   2  -1  26  -1
M  END
>  <COMPND>  (146) 
    8629 

>  <AUTHOR>  (146) 
    GENERATED BY OPEN BABEL 3.1.1

>  <MASTER>  (146) 
        0    0    0    0    0    0    0    0   58    0   58    0

>  <minimizedAffinity>  (146) 
-7.17412

>  <CNNscore>  (146) 
0.4990121126

>  <CNNaffinity>  (146) 
4.4480595589

>  <CNN_VS>  (146) 
2.2196354866

>  <CNNaffinity_variance>  (146) 
0.0328941830

$$$$
147
     RDKit          3D

 43 45  0  0  0  0  0  0  0  0999 V2000
   20.4224   70.8997   -2.1611 P   0  0  2  0  0  0  0  0  0  0  0  0
   20.4140   70.0287   -0.7978 O   0  0  0  0  0  0  0  0  0  0  0  0
   20.0274   72.3379   -1.9968 O   0  0  0  0  0  0  0  0  0  0  0  0
   19.5131   70.0333   -3.1811 O   0  0  0  0  0  0  0  0  0  0  0  0
   18.7431   68.9644   -2.6593 C   0  0  0  0  0  0  0  0  0  0  0  0
   17.0840   70.2599   -3.8181 O   0  0  0  0  0  0  0  0  0  0  0  0
   15.0543   68.4711   -2.5252 O   0  0  0  0  0  0  0  0  0  0  0  0
   15.2302   67.4459   -5.0461 O   0  0  0  0  0  0  0  0  0  0  0  0
   16.3574   68.1535   -3.0113 C   0  0  1  0  0  0  0  0  0  0  0  0
   16.3594   68.1171   -4.5254 C   0  0  2  0  0  0  0  0  0  0  0  0
   17.2687   69.3393   -2.7205 C   0  0  1  0  0  0  0  0  0  0  0  0
   16.3741   69.5952   -4.8760 C   0  0  2  0  0  0  0  0  0  0  0  0
   14.4545   67.7283   -2.6994 H   0  0  0  0  0  0  0  0  0  0  0  0
   15.2668   66.5094   -4.7961 H   0  0  0  0  0  0  0  0  0  0  0  0
   15.3138   71.1936   -6.9494 O   0  0  0  0  0  0  0  0  0  0  0  0
   19.0193   70.5259   -9.6075 O   0  0  0  0  0  0  0  0  0  0  0  0
   17.0406   69.8563   -6.1206 N   0  0  0  0  0  0  0  0  0  0  0  0
   17.1598   70.8600   -8.2712 N   0  0  0  0  0  0  0  0  0  0  0  0
   16.4210   70.6718   -7.0961 C   0  0  0  0  0  0  0  0  0  0  0  0
   18.2946   69.3065   -6.3638 C   0  0  0  0  0  0  0  0  0  0  0  0
   18.9854   69.4946   -7.4902 C   0  0  0  0  0  0  0  0  0  0  0  0
   18.4090   70.3340   -8.5603 C   0  0  0  0  0  0  0  0  0  0  0  0
   16.7478   71.4243   -8.9652 H   0  0  0  0  0  0  0  0  0  0  0  0
   21.9195   70.6738   -2.7275 O   0  0  0  0  0  0  0  0  0  0  0  0
   23.1796   71.6812   -2.8284 P   0  0  2  0  0  0  0  0  0  0  0  0
   24.3047   70.7940   -3.5796 O   0  0  0  0  0  0  0  0  0  0  0  0
   23.6185   72.2514   -1.5108 O   0  0  0  0  0  0  0  0  0  0  0  0
   22.7345   72.7841   -3.9195 O   0  0  0  0  0  0  0  0  0  0  0  0
   21.0256   72.1910   -5.4507 O   0  0  0  0  0  0  0  0  0  0  0  0
   22.6384   75.4080   -7.4756 O   0  0  0  0  0  0  0  0  0  0  0  0
   20.0737   75.6703   -6.2102 O   0  0  0  0  0  0  0  0  0  0  0  0
   24.3744   73.5796   -6.0533 O   0  0  0  0  0  0  0  0  0  0  0  0
   22.2392   74.6612   -6.3231 C   0  0  1  0  0  0  0  0  0  0  0  0
   20.7305   74.4211   -6.4061 C   0  0  1  0  0  0  0  0  0  0  0  0
   22.9945   73.3336   -6.3024 C   0  0  2  0  0  0  0  0  0  0  0  0
   20.2723   73.4052   -5.3511 C   0  0  1  0  0  0  0  0  0  0  0  0
   22.4281   72.3778   -5.2508 C   0  0  1  0  0  0  0  0  0  0  0  0
   22.1628   76.2524   -7.4945 H   0  0  0  0  0  0  0  0  0  0  0  0
   20.3722   76.3029   -6.8825 H   0  0  0  0  0  0  0  0  0  0  0  0
   24.7212   74.1856   -6.7259 H   0  0  0  0  0  0  0  0  0  0  0  0
   18.0123   74.0150   -4.8718 O   0  0  0  0  0  0  0  0  0  0  0  0
   18.8008   73.0322   -5.5174 C   0  0  0  0  0  0  0  0  0  0  0  0
   17.0733   73.7908   -4.9698 H   0  0  0  0  0  0  0  0  0  0  0  0
 25 28  1  0
 25 24  1  0
 25 26  1  6
 25 27  2  0
  1  4  1  0
  1 24  1  0
  1  2  1  1
  1  3  2  0
  6 11  1  0
  6 12  1  0
 29 36  1  0
 29 37  1  0
  9  7  1  6
  7 13  1  0
 10  8  1  6
  8 14  1  0
 37 28  1  1
  4  5  1  0
 33 30  1  6
 30 38  1  0
 34 31  1  1
 31 39  1  0
 35 32  1  1
 32 40  1  0
 41 42  1  0
 41 43  1  0
 15 19  2  0
 16 22  2  0
 12 17  1  6
 17 19  1  0
 17 20  1  0
 18 19  1  0
 18 22  1  0
 18 23  1  0
  9 10  1  0
  9 11  1  0
 10 12  1  0
 11  5  1  6
 33 34  1  0
 33 35  1  0
 34 36  1  0
 35 37  1  0
 36 42  1  6
 20 21  2  0
 21 22  1  0
M  CHG  2   2  -1  26  -1
M  END
>  <COMPND>  (147) 
    8629 

>  <AUTHOR>  (147) 
    GENERATED BY OPEN BABEL 3.1.1

>  <MASTER>  (147) 
        0    0    0    0    0    0    0    0   58    0   58    0

>  <minimizedAffinity>  (147) 
-6.90157

>  <CNNscore>  (147) 
0.4942790568

>  <CNNaffinity>  (147) 
4.3066654205

>  <CNN_VS>  (147) 
2.1286945343

>  <CNNaffinity_variance>  (147) 
0.6818650961

$$$$
148
     RDKit          3D

 43 45  0  0  0  0  0  0  0  0999 V2000
   22.5790   71.3794   -2.6268 P   0  0  2  0  0  0  0  0  0  0  0  0
   23.8404   70.5524   -3.2120 O   0  0  0  0  0  0  0  0  0  0  0  0
   22.8676   72.1897   -1.3974 O   0  0  0  0  0  0  0  0  0  0  0  0
   21.4185   70.2621   -2.4755 O   0  0  0  0  0  0  0  0  0  0  0  0
   20.6215   69.9575   -3.6068 C   0  0  0  0  0  0  0  0  0  0  0  0
   18.5306   70.8763   -4.3536 O   0  0  0  0  0  0  0  0  0  0  0  0
   17.2420   69.1538   -2.2648 O   0  0  0  0  0  0  0  0  0  0  0  0
   16.8132   67.7341   -4.5533 O   0  0  0  0  0  0  0  0  0  0  0  0
   18.3763   68.8803   -3.0856 C   0  0  1  0  0  0  0  0  0  0  0  0
   17.9393   68.5864   -4.5056 C   0  0  2  0  0  0  0  0  0  0  0  0
   19.1566   70.1779   -3.2551 C   0  0  1  0  0  0  0  0  0  0  0  0
   17.6425   69.9778   -5.0383 C   0  0  2  0  0  0  0  0  0  0  0  0
   16.7281   68.3396   -2.1420 H   0  0  0  0  0  0  0  0  0  0  0  0
   17.0527   66.8616   -4.2040 H   0  0  0  0  0  0  0  0  0  0  0  0
   15.9457   71.3509   -6.8309 O   0  0  0  0  0  0  0  0  0  0  0  0
   18.6179   70.3158  -10.4405 O   0  0  0  0  0  0  0  0  0  0  0  0
   17.8710   70.0834   -6.4518 N   0  0  0  0  0  0  0  0  0  0  0  0
   17.2777   70.8345   -8.6267 N   0  0  0  0  0  0  0  0  0  0  0  0
   16.9571   70.7947   -7.2638 C   0  0  0  0  0  0  0  0  0  0  0  0
   18.9912   69.4859   -7.0192 C   0  0  0  0  0  0  0  0  0  0  0  0
   19.2819   69.5319   -8.3210 C   0  0  0  0  0  0  0  0  0  0  0  0
   18.3782   70.2554   -9.2385 C   0  0  0  0  0  0  0  0  0  0  0  0
   16.6552   71.3242   -9.2118 H   0  0  0  0  0  0  0  0  0  0  0  0
   22.0876   72.2431   -3.9018 O   0  0  0  0  0  0  0  0  0  0  0  0
   22.7390   73.5343   -4.6239 P   0  0  2  0  0  0  0  0  0  0  0  0
   23.7816   72.8843   -5.6765 O   0  0  0  0  0  0  0  0  0  0  0  0
   23.3518   74.5252   -3.6770 O   0  0  0  0  0  0  0  0  0  0  0  0
   21.5527   74.1312   -5.5412 O   0  0  0  0  0  0  0  0  0  0  0  0
   19.7403   74.8845   -4.2128 O   0  0  0  0  0  0  0  0  0  0  0  0
   17.9998   75.2008   -7.9439 O   0  0  0  0  0  0  0  0  0  0  0  0
   18.7627   77.5806   -6.5288 O   0  0  0  0  0  0  0  0  0  0  0  0
   19.7482   72.9714   -7.3505 O   0  0  0  0  0  0  0  0  0  0  0  0
   19.0697   75.2551   -6.9964 C   0  0  1  0  0  0  0  0  0  0  0  0
   18.7118   76.2897   -5.9277 C   0  0  1  0  0  0  0  0  0  0  0  0
   19.2512   73.8744   -6.3687 C   0  0  2  0  0  0  0  0  0  0  0  0
   19.6792   76.2154   -4.7387 C   0  0  1  0  0  0  0  0  0  0  0  0
   20.1942   73.9206   -5.1651 C   0  0  1  0  0  0  0  0  0  0  0  0
   17.8797   76.0743   -8.3465 H   0  0  0  0  0  0  0  0  0  0  0  0
   18.1477   77.6141   -7.2783 H   0  0  0  0  0  0  0  0  0  0  0  0
   19.1423   72.9509   -8.1071 H   0  0  0  0  0  0  0  0  0  0  0  0
   17.8585   77.3710   -3.7098 O   0  0  0  0  0  0  0  0  0  0  0  0
   19.2484   77.1284   -3.5929 C   0  0  0  0  0  0  0  0  0  0  0  0
   17.5701   77.9506   -2.9869 H   0  0  0  0  0  0  0  0  0  0  0  0
 25 28  1  0
 25 24  1  0
 25 26  1  6
 25 27  2  0
  1  4  1  0
  1 24  1  0
  1  2  1  6
  1  3  2  0
  6 11  1  0
  6 12  1  0
 29 36  1  0
 29 37  1  0
  9  7  1  1
  7 13  1  0
 10  8  1  1
  8 14  1  0
 37 28  1  6
  4  5  1  0
 33 30  1  6
 30 38  1  0
 34 31  1  6
 31 39  1  0
 35 32  1  6
 32 40  1  0
 41 42  1  0
 41 43  1  0
 15 19  2  0
 16 22  2  0
 12 17  1  6
 17 19  1  0
 17 20  1  0
 18 19  1  0
 18 22  1  0
 18 23  1  0
  9 10  1  0
  9 11  1  0
 10 12  1  0
 11  5  1  6
 33 34  1  0
 33 35  1  0
 34 36  1  0
 35 37  1  0
 36 42  1  1
 20 21  2  0
 21 22  1  0
M  CHG  2   2  -1  26  -1
M  END
>  <COMPND>  (148) 
    8629 

>  <AUTHOR>  (148) 
    GENERATED BY OPEN BABEL 3.1.1

>  <MASTER>  (148) 
        0    0    0    0    0    0    0    0   58    0   58    0

>  <minimizedAffinity>  (148) 
-7.07229

>  <CNNscore>  (148) 
0.4880880415

>  <CNNaffinity>  (148) 
4.2227206230

>  <CNN_VS>  (148) 
2.0610594749

>  <CNNaffinity_variance>  (148) 
0.4792640805

$$$$
149
     RDKit          3D

 43 45  0  0  0  0  0  0  0  0999 V2000
   17.7170   70.9865   -2.2389 P   0  0  2  0  0  0  0  0  0  0  0  0
   16.1328   71.2553   -2.4270 O   0  0  0  0  0  0  0  0  0  0  0  0
   18.0625   69.8489   -1.3235 O   0  0  0  0  0  0  0  0  0  0  0  0
   18.3089   72.4322   -1.8175 O   0  0  0  0  0  0  0  0  0  0  0  0
   17.5992   73.2009   -0.8619 C   0  0  0  0  0  0  0  0  0  0  0  0
   19.7167   72.6892    0.1521 O   0  0  0  0  0  0  0  0  0  0  0  0
   19.1977   75.0173    1.9690 O   0  0  0  0  0  0  0  0  0  0  0  0
   20.9372   76.0616    0.1468 O   0  0  0  0  0  0  0  0  0  0  0  0
   18.8708   74.8592    0.5893 C   0  0  1  0  0  0  0  0  0  0  0  0
   20.1153   74.9880   -0.2640 C   0  0  2  0  0  0  0  0  0  0  0  0
   18.4796   73.4041    0.3636 C   0  0  1  0  0  0  0  0  0  0  0  0
   20.7768   73.6352   -0.0628 C   0  0  2  0  0  0  0  0  0  0  0  0
   19.4506   75.9391    2.1376 H   0  0  0  0  0  0  0  0  0  0  0  0
   20.4723   76.8999   -0.0013 H   0  0  0  0  0  0  0  0  0  0  0  0
   22.9225   71.8008    0.0303 O   0  0  0  0  0  0  0  0  0  0  0  0
   23.6466   72.1366   -4.5088 O   0  0  0  0  0  0  0  0  0  0  0  0
   21.5434   73.2249   -1.2053 N   0  0  0  0  0  0  0  0  0  0  0  0
   23.2812   71.9693   -2.2299 N   0  0  0  0  0  0  0  0  0  0  0  0
   22.6013   72.2991   -1.0505 C   0  0  0  0  0  0  0  0  0  0  0  0
   21.2432   73.7390   -2.4621 C   0  0  0  0  0  0  0  0  0  0  0  0
   21.9020   73.4154   -3.5768 C   0  0  0  0  0  0  0  0  0  0  0  0
   23.0213   72.4543   -3.5019 C   0  0  0  0  0  0  0  0  0  0  0  0
   24.0224   71.3264   -2.1463 H   0  0  0  0  0  0  0  0  0  0  0  0
   18.2386   70.8093   -3.7586 O   0  0  0  0  0  0  0  0  0  0  0  0
   19.3335   69.8046   -4.3948 P   0  0  2  0  0  0  0  0  0  0  0  0
   18.6156   68.3585   -4.2894 O   0  0  0  0  0  0  0  0  0  0  0  0
   20.6844   69.8742   -3.7435 O   0  0  0  0  0  0  0  0  0  0  0  0
   19.3331   70.1458   -5.9723 O   0  0  0  0  0  0  0  0  0  0  0  0
   17.0840   70.2188   -6.7159 O   0  0  0  0  0  0  0  0  0  0  0  0
   18.9942   70.7373  -10.3399 O   0  0  0  0  0  0  0  0  0  0  0  0
   17.6443   72.9583   -9.1180 O   0  0  0  0  0  0  0  0  0  0  0  0
   20.0912   68.9141   -8.3772 O   0  0  0  0  0  0  0  0  0  0  0  0
   18.8166   70.8821   -8.9282 C   0  0  1  0  0  0  0  0  0  0  0  0
   17.4931   71.6097   -8.6835 C   0  0  1  0  0  0  0  0  0  0  0  0
   18.7962   69.4977   -8.2830 C   0  0  2  0  0  0  0  0  0  0  0  0
   17.1034   71.5669   -7.1998 C   0  0  1  0  0  0  0  0  0  0  0  0
   18.3486   69.5620   -6.8216 C   0  0  1  0  0  0  0  0  0  0  0  0
   19.0085   71.6128  -10.7555 H   0  0  0  0  0  0  0  0  0  0  0  0
   17.8908   72.9713  -10.0562 H   0  0  0  0  0  0  0  0  0  0  0  0
   20.3630   68.8788   -9.3071 H   0  0  0  0  0  0  0  0  0  0  0  0
   15.0293   72.2119   -8.1953 O   0  0  0  0  0  0  0  0  0  0  0  0
   15.7123   72.1481   -6.9569 C   0  0  0  0  0  0  0  0  0  0  0  0
   14.1422   72.5797   -8.0561 H   0  0  0  0  0  0  0  0  0  0  0  0
 25 28  1  0
 25 24  1  0
 25 26  1  6
 25 27  2  0
  1  4  1  0
  1 24  1  0
  1  2  1  6
  1  3  2  0
  6 11  1  0
  6 12  1  0
 29 36  1  0
 29 37  1  0
  9  7  1  1
  7 13  1  0
 10  8  1  1
  8 14  1  0
 37 28  1  1
  4  5  1  0
 33 30  1  6
 30 38  1  0
 34 31  1  1
 31 39  1  0
 35 32  1  1
 32 40  1  0
 41 42  1  0
 41 43  1  0
 15 19  2  0
 16 22  2  0
 12 17  1  6
 17 19  1  0
 17 20  1  0
 18 19  1  0
 18 22  1  0
 18 23  1  0
  9 10  1  0
  9 11  1  0
 10 12  1  0
 11  5  1  6
 33 34  1  0
 33 35  1  0
 34 36  1  0
 35 37  1  0
 36 42  1  6
 20 21  2  0
 21 22  1  0
M  CHG  2   2  -1  26  -1
M  END
>  <COMPND>  (149) 
    8629 

>  <AUTHOR>  (149) 
    GENERATED BY OPEN BABEL 3.1.1

>  <MASTER>  (149) 
        0    0    0    0    0    0    0    0   58    0   58    0

>  <minimizedAffinity>  (149) 
-8.04965

>  <CNNscore>  (149) 
0.4722698629

>  <CNNaffinity>  (149) 
4.0424189568

>  <CNN_VS>  (149) 
1.9091126919

>  <CNNaffinity_variance>  (149) 
0.5649545193

$$$$
150
     RDKit          3D

 43 45  0  0  0  0  0  0  0  0999 V2000
   21.8721   71.3551   -2.0712 P   0  0  2  0  0  0  0  0  0  0  0  0
   23.4112   71.6067   -2.5016 O   0  0  0  0  0  0  0  0  0  0  0  0
   21.6809   70.3951   -0.9340 O   0  0  0  0  0  0  0  0  0  0  0  0
   21.1412   70.9557   -3.4584 O   0  0  0  0  0  0  0  0  0  0  0  0
   20.4282   69.7327   -3.5191 C   0  0  0  0  0  0  0  0  0  0  0  0
   18.3962   70.7428   -4.3094 O   0  0  0  0  0  0  0  0  0  0  0  0
   16.9808   69.0220   -2.3029 O   0  0  0  0  0  0  0  0  0  0  0  0
   16.5758   67.6700   -4.6363 O   0  0  0  0  0  0  0  0  0  0  0  0
   18.1306   68.7260   -3.0939 C   0  0  1  0  0  0  0  0  0  0  0  0
   17.7294   68.4797   -4.5333 C   0  0  2  0  0  0  0  0  0  0  0  0
   18.9615   69.9979   -3.2085 C   0  0  1  0  0  0  0  0  0  0  0  0
   17.4993   69.8924   -5.0424 C   0  0  2  0  0  0  0  0  0  0  0  0
   16.4347   68.2244   -2.2153 H   0  0  0  0  0  0  0  0  0  0  0  0
   16.7730   66.7818   -4.3000 H   0  0  0  0  0  0  0  0  0  0  0  0
   15.8672   71.2979   -6.8697 O   0  0  0  0  0  0  0  0  0  0  0  0
   18.6618   70.3183  -10.4012 O   0  0  0  0  0  0  0  0  0  0  0  0
   17.7768   70.0210   -6.4452 N   0  0  0  0  0  0  0  0  0  0  0  0
   17.2601   70.8091   -8.6266 N   0  0  0  0  0  0  0  0  0  0  0  0
   16.8924   70.7473   -7.2764 C   0  0  0  0  0  0  0  0  0  0  0  0
   18.9153   69.4311   -6.9834 C   0  0  0  0  0  0  0  0  0  0  0  0
   19.2511   69.4982   -8.2733 C   0  0  0  0  0  0  0  0  0  0  0  0
   18.3805   70.2384   -9.2094 C   0  0  0  0  0  0  0  0  0  0  0  0
   16.6587   71.3095   -9.2247 H   0  0  0  0  0  0  0  0  0  0  0  0
   21.3246   72.8496   -1.7893 O   0  0  0  0  0  0  0  0  0  0  0  0
   20.6632   73.9424   -2.7800 P   0  0  2  0  0  0  0  0  0  0  0  0
   20.8747   75.3372   -1.9881 O   0  0  0  0  0  0  0  0  0  0  0  0
   19.2383   73.6520   -3.1531 O   0  0  0  0  0  0  0  0  0  0  0  0
   21.6786   74.0263   -4.0317 O   0  0  0  0  0  0  0  0  0  0  0  0
   22.0216   75.6678   -5.7064 O   0  0  0  0  0  0  0  0  0  0  0  0
   22.3919   72.2715   -8.0258 O   0  0  0  0  0  0  0  0  0  0  0  0
   24.7271   73.8205   -7.3966 O   0  0  0  0  0  0  0  0  0  0  0  0
   20.4171   72.3679   -5.9115 O   0  0  0  0  0  0  0  0  0  0  0  0
   22.5278   73.0618   -6.8415 C   0  0  1  0  0  0  0  0  0  0  0  0
   23.3960   74.2771   -7.1729 C   0  0  1  0  0  0  0  0  0  0  0  0
   21.1420   73.5025   -6.3738 C   0  0  2  0  0  0  0  0  0  0  0  0
   23.3681   75.3051   -6.0338 C   0  0  1  0  0  0  0  0  0  0  0  0
   21.2276   74.5615   -5.2733 C   0  0  1  0  0  0  0  0  0  0  0  0
   23.2683   71.9881   -8.3277 H   0  0  0  0  0  0  0  0  0  0  0  0
   24.7307   73.1716   -8.1179 H   0  0  0  0  0  0  0  0  0  0  0  0
   20.3696   71.7051   -6.6173 H   0  0  0  0  0  0  0  0  0  0  0  0
   24.4413   76.5331   -7.7799 O   0  0  0  0  0  0  0  0  0  0  0  0
   24.0987   76.5929   -6.4076 C   0  0  0  0  0  0  0  0  0  0  0  0
   24.9067   77.3465   -8.0321 H   0  0  0  0  0  0  0  0  0  0  0  0
 25 28  1  0
 25 24  1  0
 25 26  1  1
 25 27  2  0
  1  4  1  0
  1 24  1  0
  1  2  1  6
  1  3  2  0
  6 11  1  0
  6 12  1  0
 29 36  1  0
 29 37  1  0
  9  7  1  1
  7 13  1  0
 10  8  1  1
  8 14  1  0
 37 28  1  1
  4  5  1  0
 33 30  1  6
 30 38  1  0
 34 31  1  1
 31 39  1  0
 35 32  1  1
 32 40  1  0
 41 42  1  0
 41 43  1  0
 15 19  2  0
 16 22  2  0
 12 17  1  6
 17 19  1  0
 17 20  1  0
 18 19  1  0
 18 22  1  0
 18 23  1  0
  9 10  1  0
  9 11  1  0
 10 12  1  0
 11  5  1  6
 33 34  1  0
 33 35  1  0
 34 36  1  0
 35 37  1  0
 36 42  1  6
 20 21  2  0
 21 22  1  0
M  CHG  2   2  -1  26  -1
M  END
>  <COMPND>  (150) 
    8629 

>  <AUTHOR>  (150) 
    GENERATED BY OPEN BABEL 3.1.1

>  <MASTER>  (150) 
        0    0    0    0    0    0    0    0   58    0   58    0

>  <minimizedAffinity>  (150) 
-7.59416

>  <CNNscore>  (150) 
0.4665954411

>  <CNNaffinity>  (150) 
4.2537302971

>  <CNN_VS>  (150) 
1.9847711325

>  <CNNaffinity_variance>  (150) 
0.5679987073

$$$$
151
     RDKit          3D

 43 45  0  0  0  0  0  0  0  0999 V2000
   22.0368   71.2951   -2.0670 P   0  0  2  0  0  0  0  0  0  0  0  0
   23.5426   71.1081   -2.6282 O   0  0  0  0  0  0  0  0  0  0  0  0
   21.7008   70.4631   -0.8643 O   0  0  0  0  0  0  0  0  0  0  0  0
   21.1050   71.0576   -3.3682 O   0  0  0  0  0  0  0  0  0  0  0  0
   20.4361   69.8158   -3.5033 C   0  0  0  0  0  0  0  0  0  0  0  0
   18.3645   70.7453   -4.2896 O   0  0  0  0  0  0  0  0  0  0  0  0
   17.0190   68.9402   -2.3092 O   0  0  0  0  0  0  0  0  0  0  0  0
   16.6818   67.5998   -4.6599 O   0  0  0  0  0  0  0  0  0  0  0  0
   18.1834   68.7044   -3.0990 C   0  0  1  0  0  0  0  0  0  0  0  0
   17.7983   68.4580   -4.5428 C   0  0  2  0  0  0  0  0  0  0  0  0
   18.9580   70.0128   -3.1953 C   0  0  1  0  0  0  0  0  0  0  0  0
   17.5083   69.8653   -5.0362 C   0  0  2  0  0  0  0  0  0  0  0  0
   16.5082   68.1185   -2.2332 H   0  0  0  0  0  0  0  0  0  0  0  0
   16.9166   66.7172   -4.3335 H   0  0  0  0  0  0  0  0  0  0  0  0
   15.8740   71.3069   -6.8331 O   0  0  0  0  0  0  0  0  0  0  0  0
   18.6666   70.4014  -10.3860 O   0  0  0  0  0  0  0  0  0  0  0  0
   17.7846   70.0228   -6.4362 N   0  0  0  0  0  0  0  0  0  0  0  0
   17.2659   70.8550   -8.6007 N   0  0  0  0  0  0  0  0  0  0  0  0
   16.8992   70.7654   -7.2517 C   0  0  0  0  0  0  0  0  0  0  0  0
   18.9231   69.4446   -6.9871 C   0  0  0  0  0  0  0  0  0  0  0  0
   19.2578   69.5383   -8.2757 C   0  0  0  0  0  0  0  0  0  0  0  0
   18.3862   70.2970   -9.1959 C   0  0  0  0  0  0  0  0  0  0  0  0
   16.6638   71.3672   -9.1879 H   0  0  0  0  0  0  0  0  0  0  0  0
   21.9322   72.8909   -1.8315 O   0  0  0  0  0  0  0  0  0  0  0  0
   20.8096   73.9601   -2.2891 P   0  0  2  0  0  0  0  0  0  0  0  0
   21.1662   75.2713   -1.4110 O   0  0  0  0  0  0  0  0  0  0  0  0
   19.3975   73.4750   -2.1321 O   0  0  0  0  0  0  0  0  0  0  0  0
   21.2160   74.3581   -3.7995 O   0  0  0  0  0  0  0  0  0  0  0  0
   22.7318   73.3105   -5.2901 O   0  0  0  0  0  0  0  0  0  0  0  0
   23.4004   77.2504   -6.3300 O   0  0  0  0  0  0  0  0  0  0  0  0
   21.9590   75.5348   -8.1264 O   0  0  0  0  0  0  0  0  0  0  0  0
   22.9597   76.5435   -3.5577 O   0  0  0  0  0  0  0  0  0  0  0  0
   22.6205   76.1291   -5.9060 C   0  0  1  0  0  0  0  0  0  0  0  0
   22.6864   75.0589   -6.9974 C   0  0  1  0  0  0  0  0  0  0  0  0
   23.1887   75.5937   -4.5930 C   0  0  2  0  0  0  0  0  0  0  0  0
   22.0995   73.7290   -6.5054 C   0  0  1  0  0  0  0  0  0  0  0  0
   22.5731   74.2439   -4.2198 C   0  0  1  0  0  0  0  0  0  0  0  0
   23.0446   77.5954   -7.1630 H   0  0  0  0  0  0  0  0  0  0  0  0
   22.3393   76.3751   -8.4268 H   0  0  0  0  0  0  0  0  0  0  0  0
   23.3544   77.3935   -3.8058 H   0  0  0  0  0  0  0  0  0  0  0  0
   23.3379   72.9786   -8.4059 O   0  0  0  0  0  0  0  0  0  0  0  0
   22.2976   72.6059   -7.5209 C   0  0  0  0  0  0  0  0  0  0  0  0
   23.4753   72.2729   -9.0578 H   0  0  0  0  0  0  0  0  0  0  0  0
 25 28  1  0
 25 24  1  0
 25 26  1  1
 25 27  2  0
  1  4  1  0
  1 24  1  0
  1  2  1  6
  1  3  2  0
  6 11  1  0
  6 12  1  0
 29 36  1  0
 29 37  1  0
  9  7  1  1
  7 13  1  0
 10  8  1  1
  8 14  1  0
 37 28  1  6
  4  5  1  0
 33 30  1  6
 30 38  1  0
 34 31  1  6
 31 39  1  0
 35 32  1  1
 32 40  1  0
 41 42  1  0
 41 43  1  0
 15 19  2  0
 16 22  2  0
 12 17  1  6
 17 19  1  0
 17 20  1  0
 18 19  1  0
 18 22  1  0
 18 23  1  0
  9 10  1  0
  9 11  1  0
 10 12  1  0
 11  5  1  6
 33 34  1  0
 33 35  1  0
 34 36  1  0
 35 37  1  0
 36 42  1  6
 20 21  2  0
 21 22  1  0
M  CHG  2   2  -1  26  -1
M  END
>  <COMPND>  (151) 
    8629 

>  <AUTHOR>  (151) 
    GENERATED BY OPEN BABEL 3.1.1

>  <MASTER>  (151) 
        0    0    0    0    0    0    0    0   58    0   58    0

>  <minimizedAffinity>  (151) 
-7.36367

>  <CNNscore>  (151) 
0.4596004188

>  <CNNaffinity>  (151) 
4.2251138687

>  <CNN_VS>  (151) 
1.9418641329

>  <CNNaffinity_variance>  (151) 
0.5318189263

$$$$
152
     RDKit          3D

 43 45  0  0  0  0  0  0  0  0999 V2000
   16.7099   70.9836   -2.3728 P   0  0  2  0  0  0  0  0  0  0  0  0
   16.6652   72.1712   -3.4705 O   0  0  0  0  0  0  0  0  0  0  0  0
   15.4925   70.1071   -2.3373 O   0  0  0  0  0  0  0  0  0  0  0  0
   17.0679   71.7452   -0.9909 O   0  0  0  0  0  0  0  0  0  0  0  0
   17.6161   73.0500   -1.0604 C   0  0  0  0  0  0  0  0  0  0  0  0
   19.4301   72.4999    0.4163 O   0  0  0  0  0  0  0  0  0  0  0  0
   18.9459   75.1658    1.7007 O   0  0  0  0  0  0  0  0  0  0  0  0
   21.1064   75.6558    0.1105 O   0  0  0  0  0  0  0  0  0  0  0  0
   18.8432   74.7941    0.3271 C   0  0  1  0  0  0  0  0  0  0  0  0
   20.2219   74.6237   -0.2760 C   0  0  2  0  0  0  0  0  0  0  0  0
   18.2912   73.3754    0.2649 C   0  0  1  0  0  0  0  0  0  0  0  0
   20.6365   73.2657    0.2643 C   0  0  2  0  0  0  0  0  0  0  0  0
   19.2960   76.0686    1.7659 H   0  0  0  0  0  0  0  0  0  0  0  0
   20.7999   76.4992   -0.2577 H   0  0  0  0  0  0  0  0  0  0  0  0
   23.4398   73.6069    0.2118 O   0  0  0  0  0  0  0  0  0  0  0  0
   23.9328   70.5415   -3.1943 O   0  0  0  0  0  0  0  0  0  0  0  0
   21.5219   72.5692   -0.6258 N   0  0  0  0  0  0  0  0  0  0  0  0
   23.6831   72.0801   -1.4840 N   0  0  0  0  0  0  0  0  0  0  0  0
   22.9139   72.8137   -0.5718 C   0  0  0  0  0  0  0  0  0  0  0  0
   21.0081   71.6550   -1.5392 C   0  0  0  0  0  0  0  0  0  0  0  0
   21.7550   70.9645   -2.4033 C   0  0  0  0  0  0  0  0  0  0  0  0
   23.2190   71.1613   -2.4120 C   0  0  0  0  0  0  0  0  0  0  0  0
   24.6555   72.2344   -1.4649 H   0  0  0  0  0  0  0  0  0  0  0  0
   18.0847   70.2113   -2.7287 O   0  0  0  0  0  0  0  0  0  0  0  0
   18.4266   69.1279   -3.8786 P   0  0  2  0  0  0  0  0  0  0  0  0
   17.1755   68.1044   -3.8079 O   0  0  0  0  0  0  0  0  0  0  0  0
   19.7701   68.4749   -3.7289 O   0  0  0  0  0  0  0  0  0  0  0  0
   18.2220   69.9265   -5.2661 O   0  0  0  0  0  0  0  0  0  0  0  0
   19.4241   70.0785   -7.3029 O   0  0  0  0  0  0  0  0  0  0  0  0
   18.5788   74.0803   -6.7355 O   0  0  0  0  0  0  0  0  0  0  0  0
   17.1979   72.6160   -8.7840 O   0  0  0  0  0  0  0  0  0  0  0  0
   19.2535   72.4114   -4.4685 O   0  0  0  0  0  0  0  0  0  0  0  0
   18.3259   72.6740   -6.6757 C   0  0  1  0  0  0  0  0  0  0  0  0
   18.3474   72.1218   -8.1024 C   0  0  1  0  0  0  0  0  0  0  0  0
   19.4060   72.0082   -5.8252 C   0  0  2  0  0  0  0  0  0  0  0  0
   18.3500   70.5872   -8.1025 C   0  0  1  0  0  0  0  0  0  0  0  0
   19.3509   70.4833   -5.9344 C   0  0  1  0  0  0  0  0  0  0  0  0
   17.8963   74.5091   -7.2737 H   0  0  0  0  0  0  0  0  0  0  0  0
   17.2081   73.5861   -8.7764 H   0  0  0  0  0  0  0  0  0  0  0  0
   19.2905   73.3786   -4.4126 H   0  0  0  0  0  0  0  0  0  0  0  0
   18.7266   71.0901  -10.4077 O   0  0  0  0  0  0  0  0  0  0  0  0
   18.5301   70.0156   -9.5071 C   0  0  0  0  0  0  0  0  0  0  0  0
   18.8430   70.7414  -11.3058 H   0  0  0  0  0  0  0  0  0  0  0  0
 25 28  1  0
 25 24  1  0
 25 26  1  6
 25 27  2  0
  1  4  1  0
  1 24  1  0
  1  2  1  6
  1  3  2  0
  6 11  1  0
  6 12  1  0
 29 36  1  0
 29 37  1  0
  9  7  1  1
  7 13  1  0
 10  8  1  1
  8 14  1  0
 37 28  1  6
  4  5  1  0
 33 30  1  6
 30 38  1  0
 34 31  1  6
 31 39  1  0
 35 32  1  1
 32 40  1  0
 41 42  1  0
 41 43  1  0
 15 19  2  0
 16 22  2  0
 12 17  1  6
 17 19  1  0
 17 20  1  0
 18 19  1  0
 18 22  1  0
 18 23  1  0
  9 10  1  0
  9 11  1  0
 10 12  1  0
 11  5  1  6
 33 34  1  0
 33 35  1  0
 34 36  1  0
 35 37  1  0
 36 42  1  6
 20 21  2  0
 21 22  1  0
M  CHG  2   2  -1  26  -1
M  END
>  <COMPND>  (152) 
    8629 

>  <AUTHOR>  (152) 
    GENERATED BY OPEN BABEL 3.1.1

>  <MASTER>  (152) 
        0    0    0    0    0    0    0    0   58    0   58    0

>  <minimizedAffinity>  (152) 
-7.03081

>  <CNNscore>  (152) 
0.4555805027

>  <CNNaffinity>  (152) 
3.9488480091

>  <CNN_VS>  (152) 
1.7990181446

>  <CNNaffinity_variance>  (152) 
0.6501893997

$$$$
153
     RDKit          3D

 43 45  0  0  0  0  0  0  0  0999 V2000
   18.2848   74.9999   -6.0963 P   0  0  2  0  0  0  0  0  0  0  0  0
   16.6898   75.2512   -5.9950 O   0  0  0  0  0  0  0  0  0  0  0  0
   19.1092   76.2362   -6.3048 O   0  0  0  0  0  0  0  0  0  0  0  0
   18.4269   73.8602   -7.2359 O   0  0  0  0  0  0  0  0  0  0  0  0
   19.3991   72.8447   -7.0591 C   0  0  0  0  0  0  0  0  0  0  0  0
   19.3615   70.4474   -6.8994 O   0  0  0  0  0  0  0  0  0  0  0  0
   17.0069   70.5477   -8.7532 O   0  0  0  0  0  0  0  0  0  0  0  0
   15.8320   70.1855   -6.3190 O   0  0  0  0  0  0  0  0  0  0  0  0
   17.3734   71.4500   -7.7106 C   0  0  1  0  0  0  0  0  0  0  0  0
   17.0870   70.8338   -6.3571 C   0  0  2  0  0  0  0  0  0  0  0  0
   18.8931   71.5576   -7.6959 C   0  0  1  0  0  0  0  0  0  0  0  0
   18.2490   69.8680   -6.1984 C   0  0  2  0  0  0  0  0  0  0  0  0
   16.0405   70.4630   -8.7823 H   0  0  0  0  0  0  0  0  0  0  0  0
   15.1256   70.8418   -6.4241 H   0  0  0  0  0  0  0  0  0  0  0  0
   17.0659   67.9559   -4.4889 O   0  0  0  0  0  0  0  0  0  0  0  0
   19.7308   69.2076   -0.9431 O   0  0  0  0  0  0  0  0  0  0  0  0
   18.6147   69.6724   -4.8238 N   0  0  0  0  0  0  0  0  0  0  0  0
   18.3939   68.5806   -2.7249 N   0  0  0  0  0  0  0  0  0  0  0  0
   17.9581   68.6857   -4.0519 C   0  0  0  0  0  0  0  0  0  0  0  0
   19.6144   70.4538   -4.2548 C   0  0  0  0  0  0  0  0  0  0  0  0
   20.0175   70.3419   -2.9874 C   0  0  0  0  0  0  0  0  0  0  0  0
   19.3825   69.3349   -2.1129 C   0  0  0  0  0  0  0  0  0  0  0  0
   17.9505   67.9002   -2.1679 H   0  0  0  0  0  0  0  0  0  0  0  0
   18.6131   74.1943   -4.7339 O   0  0  0  0  0  0  0  0  0  0  0  0
   19.0145   74.7213   -3.2594 P   0  0  2  0  0  0  0  0  0  0  0  0
   17.7561   74.2696   -2.3485 O   0  0  0  0  0  0  0  0  0  0  0  0
   19.3309   76.1875   -3.1951 O   0  0  0  0  0  0  0  0  0  0  0  0
   20.2215   73.7556   -2.7950 O   0  0  0  0  0  0  0  0  0  0  0  0
   22.2326   73.7051   -1.5423 O   0  0  0  0  0  0  0  0  0  0  0  0
   23.7422   72.7086   -5.2543 O   0  0  0  0  0  0  0  0  0  0  0  0
   23.5582   70.6978   -3.2120 O   0  0  0  0  0  0  0  0  0  0  0  0
   21.6361   74.6823   -5.0344 O   0  0  0  0  0  0  0  0  0  0  0  0
   22.7709   72.7265   -4.2047 C   0  0  1  0  0  0  0  0  0  0  0  0
   23.3965   72.0911   -2.9614 C   0  0  1  0  0  0  0  0  0  0  0  0
   22.3662   74.1724   -3.9238 C   0  0  2  0  0  0  0  0  0  0  0  0
   22.5168   72.3130   -1.7237 C   0  0  1  0  0  0  0  0  0  0  0  0
   21.5350   74.2880   -2.6448 C   0  0  1  0  0  0  0  0  0  0  0  0
   24.0031   71.7933   -5.4379 H   0  0  0  0  0  0  0  0  0  0  0  0
   24.1152   70.5716   -3.9963 H   0  0  0  0  0  0  0  0  0  0  0  0
   22.1732   74.6038   -5.8377 H   0  0  0  0  0  0  0  0  0  0  0  0
   22.6159   72.5010    0.6562 O   0  0  0  0  0  0  0  0  0  0  0  0
   23.1952   71.8259   -0.4452 C   0  0  0  0  0  0  0  0  0  0  0  0
   23.0377   72.2007    1.4769 H   0  0  0  0  0  0  0  0  0  0  0  0
 25 28  1  0
 25 24  1  0
 25 26  1  1
 25 27  2  0
  1  4  1  0
  1 24  1  0
  1  2  1  1
  1  3  2  0
  6 11  1  0
  6 12  1  0
 29 36  1  0
 29 37  1  0
  9  7  1  6
  7 13  1  0
 10  8  1  6
  8 14  1  0
 37 28  1  6
  4  5  1  0
 33 30  1  6
 30 38  1  0
 34 31  1  6
 31 39  1  0
 35 32  1  6
 32 40  1  0
 41 42  1  0
 41 43  1  0
 15 19  2  0
 16 22  2  0
 12 17  1  1
 17 19  1  0
 17 20  1  0
 18 19  1  0
 18 22  1  0
 18 23  1  0
  9 10  1  0
  9 11  1  0
 10 12  1  0
 11  5  1  1
 33 34  1  0
 33 35  1  0
 34 36  1  0
 35 37  1  0
 36 42  1  1
 20 21  2  0
 21 22  1  0
M  CHG  2   2  -1  26  -1
M  END
>  <COMPND>  (153) 
    8629 

>  <AUTHOR>  (153) 
    GENERATED BY OPEN BABEL 3.1.1

>  <MASTER>  (153) 
        0    0    0    0    0    0    0    0   58    0   58    0

>  <minimizedAffinity>  (153) 
-6.73185

>  <CNNscore>  (153) 
0.4118102491

>  <CNNaffinity>  (153) 
4.0307588577

>  <CNN_VS>  (153) 
1.6599078178

>  <CNNaffinity_variance>  (153) 
0.5795140862

$$$$
154
     RDKit          3D

 43 45  0  0  0  0  0  0  0  0999 V2000
   22.6310   71.5117   -2.9516 P   0  0  2  0  0  0  0  0  0  0  0  0
   22.2985   72.0625   -4.4360 O   0  0  0  0  0  0  0  0  0  0  0  0
   23.9128   70.7407   -2.8340 O   0  0  0  0  0  0  0  0  0  0  0  0
   21.2897   70.7144   -2.5237 O   0  0  0  0  0  0  0  0  0  0  0  0
   20.5338   70.0712   -3.5350 C   0  0  0  0  0  0  0  0  0  0  0  0
   18.4120   70.8818   -4.3188 O   0  0  0  0  0  0  0  0  0  0  0  0
   17.1762   69.0804   -2.2649 O   0  0  0  0  0  0  0  0  0  0  0  0
   16.8690   67.6538   -4.5686 O   0  0  0  0  0  0  0  0  0  0  0  0
   18.3395   68.8727   -3.0642 C   0  0  1  0  0  0  0  0  0  0  0  0
   17.9468   68.5645   -4.4940 C   0  0  2  0  0  0  0  0  0  0  0  0
   19.0526   70.2110   -3.2116 C   0  0  1  0  0  0  0  0  0  0  0  0
   17.5867   69.9415   -5.0256 C   0  0  2  0  0  0  0  0  0  0  0  0
   16.7042   68.2393   -2.1565 H   0  0  0  0  0  0  0  0  0  0  0  0
   17.1479   66.7932   -4.2189 H   0  0  0  0  0  0  0  0  0  0  0  0
   15.9143   71.3352   -6.8252 O   0  0  0  0  0  0  0  0  0  0  0  0
   18.6458   70.3584  -10.4065 O   0  0  0  0  0  0  0  0  0  0  0  0
   17.8371   70.0676   -6.4337 N   0  0  0  0  0  0  0  0  0  0  0  0
   17.2758   70.8479   -8.6069 N   0  0  0  0  0  0  0  0  0  0  0  0
   16.9340   70.7880   -7.2498 C   0  0  0  0  0  0  0  0  0  0  0  0
   18.9677   69.4811   -6.9918 C   0  0  0  0  0  0  0  0  0  0  0  0
   19.2787   69.5464   -8.2881 C   0  0  0  0  0  0  0  0  0  0  0  0
   18.3874   70.2804   -9.2094 C   0  0  0  0  0  0  0  0  0  0  0  0
   16.6611   71.3442   -9.1947 H   0  0  0  0  0  0  0  0  0  0  0  0
   22.5642   72.8481   -2.0446 O   0  0  0  0  0  0  0  0  0  0  0  0
   22.4249   73.0400   -0.4457 P   0  0  2  0  0  0  0  0  0  0  0  0
   23.2816   71.8047    0.1523 O   0  0  0  0  0  0  0  0  0  0  0  0
   21.0076   73.1057    0.0451 O   0  0  0  0  0  0  0  0  0  0  0  0
   23.3093   74.3484   -0.1127 O   0  0  0  0  0  0  0  0  0  0  0  0
   22.8316   76.5376    0.6591 O   0  0  0  0  0  0  0  0  0  0  0  0
   25.5167   77.4657   -2.3375 O   0  0  0  0  0  0  0  0  0  0  0  0
   26.3151   77.7174    0.4097 O   0  0  0  0  0  0  0  0  0  0  0  0
   23.6015   75.3300   -2.7253 O   0  0  0  0  0  0  0  0  0  0  0  0
   24.9708   76.6798   -1.2747 C   0  0  1  0  0  0  0  0  0  0  0  0
   24.9642   77.5309   -0.0033 C   0  0  1  0  0  0  0  0  0  0  0  0
   23.5508   76.2562   -1.6455 C   0  0  2  0  0  0  0  0  0  0  0  0
   24.1531   76.8561    1.1110 C   0  0  1  0  0  0  0  0  0  0  0  0
   22.8154   75.6411   -0.4535 C   0  0  1  0  0  0  0  0  0  0  0  0
   26.4185   77.7375   -2.1086 H   0  0  0  0  0  0  0  0  0  0  0  0
   26.8165   78.1439   -0.3030 H   0  0  0  0  0  0  0  0  0  0  0  0
   24.0691   75.7314   -3.4737 H   0  0  0  0  0  0  0  0  0  0  0  0
   23.9553   76.9424    3.4905 O   0  0  0  0  0  0  0  0  0  0  0  0
   24.0011   77.7578    2.3341 C   0  0  0  0  0  0  0  0  0  0  0  0
   23.8591   77.5028    4.2769 H   0  0  0  0  0  0  0  0  0  0  0  0
 25 28  1  0
 25 24  1  0
 25 26  1  1
 25 27  2  0
  1  4  1  0
  1 24  1  0
  1  2  1  6
  1  3  2  0
  6 11  1  0
  6 12  1  0
 29 36  1  0
 29 37  1  0
  9  7  1  1
  7 13  1  0
 10  8  1  1
  8 14  1  0
 37 28  1  1
  4  5  1  0
 33 30  1  6
 30 38  1  0
 34 31  1  1
 31 39  1  0
 35 32  1  6
 32 40  1  0
 41 42  1  0
 41 43  1  0
 15 19  2  0
 16 22  2  0
 12 17  1  6
 17 19  1  0
 17 20  1  0
 18 19  1  0
 18 22  1  0
 18 23  1  0
  9 10  1  0
  9 11  1  0
 10 12  1  0
 11  5  1  6
 33 34  1  0
 33 35  1  0
 34 36  1  0
 35 37  1  0
 36 42  1  1
 20 21  2  0
 21 22  1  0
M  CHG  2   2  -1  26  -1
M  END
>  <COMPND>  (154) 
    8629 

>  <AUTHOR>  (154) 
    GENERATED BY OPEN BABEL 3.1.1

>  <MASTER>  (154) 
        0    0    0    0    0    0    0    0   58    0   58    0

>  <minimizedAffinity>  (154) 
-7.64036

>  <CNNscore>  (154) 
0.4068033695

>  <CNNaffinity>  (154) 
4.3567867279

>  <CNN_VS>  (154) 
1.7723555565

>  <CNNaffinity_variance>  (154) 
0.0610131212

$$$$
155
     RDKit          3D

 43 45  0  0  0  0  0  0  0  0999 V2000
   21.9173   71.4931   -3.2760 P   0  0  2  0  0  0  0  0  0  0  0  0
   22.1455   72.7802   -4.2292 O   0  0  0  0  0  0  0  0  0  0  0  0
   23.1615   70.7243   -2.9407 O   0  0  0  0  0  0  0  0  0  0  0  0
   20.7545   70.6551   -4.0267 O   0  0  0  0  0  0  0  0  0  0  0  0
   20.2092   69.5216   -3.3742 C   0  0  0  0  0  0  0  0  0  0  0  0
   18.2017   70.5628   -4.1863 O   0  0  0  0  0  0  0  0  0  0  0  0
   16.7250   68.7483   -2.3107 O   0  0  0  0  0  0  0  0  0  0  0  0
   16.4050   67.5044   -4.7163 O   0  0  0  0  0  0  0  0  0  0  0  0
   17.9022   68.4915   -3.0747 C   0  0  1  0  0  0  0  0  0  0  0  0
   17.5513   68.3110   -4.5368 C   0  0  2  0  0  0  0  0  0  0  0  0
   18.7318   69.7692   -3.1021 C   0  0  1  0  0  0  0  0  0  0  0  0
   17.3335   69.7452   -4.9880 C   0  0  2  0  0  0  0  0  0  0  0  0
   16.1793   67.9464   -2.2787 H   0  0  0  0  0  0  0  0  0  0  0  0
   16.5938   66.6021   -4.4148 H   0  0  0  0  0  0  0  0  0  0  0  0
   15.8610   71.3806   -6.7586 O   0  0  0  0  0  0  0  0  0  0  0  0
   18.6712   70.4123  -10.2809 O   0  0  0  0  0  0  0  0  0  0  0  0
   17.6582   69.9389   -6.3731 N   0  0  0  0  0  0  0  0  0  0  0  0
   17.2616   70.8973   -8.5109 N   0  0  0  0  0  0  0  0  0  0  0  0
   16.8534   70.7802   -7.1762 C   0  0  0  0  0  0  0  0  0  0  0  0
   18.7642   69.2988   -6.9216 C   0  0  0  0  0  0  0  0  0  0  0  0
   19.1393   69.4200   -8.1967 C   0  0  0  0  0  0  0  0  0  0  0  0
   18.3521   70.2805   -9.1033 C   0  0  0  0  0  0  0  0  0  0  0  0
   16.7157   71.4779   -9.0895 H   0  0  0  0  0  0  0  0  0  0  0  0
   21.1481   72.1181   -1.9991 O   0  0  0  0  0  0  0  0  0  0  0  0
   20.1870   73.4111   -1.8672 P   0  0  2  0  0  0  0  0  0  0  0  0
   21.2281   74.6495   -1.8733 O   0  0  0  0  0  0  0  0  0  0  0  0
   19.2708   73.3782   -0.6784 O   0  0  0  0  0  0  0  0  0  0  0  0
   19.4323   73.5061   -3.2908 O   0  0  0  0  0  0  0  0  0  0  0  0
   19.2954   75.7920   -3.9010 O   0  0  0  0  0  0  0  0  0  0  0  0
   17.1335   74.1482   -7.0114 O   0  0  0  0  0  0  0  0  0  0  0  0
   19.7694   75.1763   -7.5044 O   0  0  0  0  0  0  0  0  0  0  0  0
   16.8658   73.0696   -4.3385 O   0  0  0  0  0  0  0  0  0  0  0  0
   18.1676   74.1938   -6.0246 C   0  0  1  0  0  0  0  0  0  0  0  0
   19.0425   75.4177   -6.3029 C   0  0  1  0  0  0  0  0  0  0  0  0
   17.5316   74.2914   -4.6392 C   0  0  2  0  0  0  0  0  0  0  0  0
   20.0068   75.6855   -5.1396 C   0  0  1  0  0  0  0  0  0  0  0  0
   18.5704   74.6083   -3.5618 C   0  0  1  0  0  0  0  0  0  0  0  0
   17.5306   74.0857   -7.8934 H   0  0  0  0  0  0  0  0  0  0  0  0
   19.1488   75.0082   -8.2310 H   0  0  0  0  0  0  0  0  0  0  0  0
   16.2107   72.8804   -5.0276 H   0  0  0  0  0  0  0  0  0  0  0  0
   21.8679   76.7488   -6.1954 O   0  0  0  0  0  0  0  0  0  0  0  0
   20.7780   76.9905   -5.3247 C   0  0  0  0  0  0  0  0  0  0  0  0
   22.3677   77.5708   -6.3227 H   0  0  0  0  0  0  0  0  0  0  0  0
 25 28  1  0
 25 24  1  0
 25 26  1  1
 25 27  2  0
  1  4  1  0
  1 24  1  0
  1  2  1  6
  1  3  2  0
  6 11  1  0
  6 12  1  0
 29 36  1  0
 29 37  1  0
  9  7  1  1
  7 13  1  0
 10  8  1  1
  8 14  1  0
 37 28  1  6
  4  5  1  0
 33 30  1  6
 30 38  1  0
 34 31  1  6
 31 39  1  0
 35 32  1  1
 32 40  1  0
 41 42  1  0
 41 43  1  0
 15 19  2  0
 16 22  2  0
 12 17  1  6
 17 19  1  0
 17 20  1  0
 18 19  1  0
 18 22  1  0
 18 23  1  0
  9 10  1  0
  9 11  1  0
 10 12  1  0
 11  5  1  6
 33 34  1  0
 33 35  1  0
 34 36  1  0
 35 37  1  0
 36 42  1  6
 20 21  2  0
 21 22  1  0
M  CHG  2   2  -1  26  -1
M  END
>  <COMPND>  (155) 
    8629 

>  <AUTHOR>  (155) 
    GENERATED BY OPEN BABEL 3.1.1

>  <MASTER>  (155) 
        0    0    0    0    0    0    0    0   58    0   58    0

>  <minimizedAffinity>  (155) 
-6.38704

>  <CNNscore>  (155) 
0.3774172366

>  <CNNaffinity>  (155) 
4.1538434029

>  <CNN_VS>  (155) 
1.5677320957

>  <CNNaffinity_variance>  (155) 
0.3664687276

$$$$
156
     RDKit          3D

 43 45  0  0  0  0  0  0  0  0999 V2000
   22.8496   71.5406   -3.2706 P   0  0  2  0  0  0  0  0  0  0  0  0
   22.3803   72.1440   -4.6964 O   0  0  0  0  0  0  0  0  0  0  0  0
   24.0906   70.6984   -3.3163 O   0  0  0  0  0  0  0  0  0  0  0  0
   21.5233   70.8073   -2.7037 O   0  0  0  0  0  0  0  0  0  0  0  0
   20.7225   70.0654   -3.6071 C   0  0  0  0  0  0  0  0  0  0  0  0
   18.5975   70.9221   -4.3309 O   0  0  0  0  0  0  0  0  0  0  0  0
   17.3847   69.1808   -2.2124 O   0  0  0  0  0  0  0  0  0  0  0  0
   16.9629   67.7335   -4.4849 O   0  0  0  0  0  0  0  0  0  0  0  0
   18.5147   68.9320   -3.0471 C   0  0  1  0  0  0  0  0  0  0  0  0
   18.0662   68.6160   -4.4587 C   0  0  2  0  0  0  0  0  0  0  0  0
   19.2572   70.2488   -3.2365 C   0  0  1  0  0  0  0  0  0  0  0  0
   17.7246   69.9951   -4.9969 C   0  0  2  0  0  0  0  0  0  0  0  0
   16.8948   68.3540   -2.0768 H   0  0  0  0  0  0  0  0  0  0  0  0
   17.2308   66.8703   -4.1329 H   0  0  0  0  0  0  0  0  0  0  0  0
   15.9651   71.3060   -6.7756 O   0  0  0  0  0  0  0  0  0  0  0  0
   18.6161   70.3198  -10.4144 O   0  0  0  0  0  0  0  0  0  0  0  0
   17.9307   70.0964   -6.4142 N   0  0  0  0  0  0  0  0  0  0  0  0
   17.2866   70.8140   -8.5859 N   0  0  0  0  0  0  0  0  0  0  0  0
   16.9859   70.7755   -7.2184 C   0  0  0  0  0  0  0  0  0  0  0  0
   19.0595   69.5265   -6.9928 C   0  0  0  0  0  0  0  0  0  0  0  0
   19.3310   69.5710   -8.2988 C   0  0  0  0  0  0  0  0  0  0  0  0
   18.3946   70.2617   -9.2088 C   0  0  0  0  0  0  0  0  0  0  0  0
   16.6424   71.2815   -9.1658 H   0  0  0  0  0  0  0  0  0  0  0  0
   22.9635   72.8565   -2.3387 O   0  0  0  0  0  0  0  0  0  0  0  0
   22.8274   73.0391   -0.7384 P   0  0  2  0  0  0  0  0  0  0  0  0
   23.8488   74.2513   -0.4150 O   0  0  0  0  0  0  0  0  0  0  0  0
   23.0844   71.7862    0.0479 O   0  0  0  0  0  0  0  0  0  0  0  0
   21.3594   73.6745   -0.5231 O   0  0  0  0  0  0  0  0  0  0  0  0
   19.1984   73.6209   -1.4945 O   0  0  0  0  0  0  0  0  0  0  0  0
   19.8245   77.7024   -1.5031 O   0  0  0  0  0  0  0  0  0  0  0  0
   17.9579   76.5581    0.3555 O   0  0  0  0  0  0  0  0  0  0  0  0
   22.0143   75.9044   -2.0960 O   0  0  0  0  0  0  0  0  0  0  0  0
   19.9243   76.3700   -0.9931 C   0  0  1  0  0  0  0  0  0  0  0  0
   18.5090   75.8434   -0.7471 C   0  0  1  0  0  0  0  0  0  0  0  0
   20.6525   75.4979   -2.0142 C   0  0  2  0  0  0  0  0  0  0  0  0
   18.5214   74.3369   -0.4549 C   0  0  1  0  0  0  0  0  0  0  0  0
   20.5629   74.0135   -1.6553 C   0  0  1  0  0  0  0  0  0  0  0  0
   19.3635   78.2614   -0.8593 H   0  0  0  0  0  0  0  0  0  0  0  0
   17.9562   77.5080    0.1583 H   0  0  0  0  0  0  0  0  0  0  0  0
   22.0575   76.8456   -2.3241 H   0  0  0  0  0  0  0  0  0  0  0  0
   16.4967   74.2609    0.8114 O   0  0  0  0  0  0  0  0  0  0  0  0
   17.1102   73.7606   -0.3623 C   0  0  0  0  0  0  0  0  0  0  0  0
   15.5976   73.9028    0.8833 H   0  0  0  0  0  0  0  0  0  0  0  0
 25 28  1  0
 25 24  1  0
 25 26  1  1
 25 27  2  0
  1  4  1  0
  1 24  1  0
  1  2  1  6
  1  3  2  0
  6 11  1  0
  6 12  1  0
 29 36  1  0
 29 37  1  0
  9  7  1  1
  7 13  1  0
 10  8  1  1
  8 14  1  0
 37 28  1  1
  4  5  1  0
 33 30  1  6
 30 38  1  0
 34 31  1  1
 31 39  1  0
 35 32  1  1
 32 40  1  0
 41 42  1  0
 41 43  1  0
 15 19  2  0
 16 22  2  0
 12 17  1  6
 17 19  1  0
 17 20  1  0
 18 19  1  0
 18 22  1  0
 18 23  1  0
  9 10  1  0
  9 11  1  0
 10 12  1  0
 11  5  1  6
 33 34  1  0
 33 35  1  0
 34 36  1  0
 35 37  1  0
 36 42  1  6
 20 21  2  0
 21 22  1  0
M  CHG  2   2  -1  26  -1
M  END
>  <COMPND>  (156) 
    8629 

>  <AUTHOR>  (156) 
    GENERATED BY OPEN BABEL 3.1.1

>  <MASTER>  (156) 
        0    0    0    0    0    0    0    0   58    0   58    0

>  <minimizedAffinity>  (156) 
-7.01740

>  <CNNscore>  (156) 
0.3523399532

>  <CNNaffinity>  (156) 
4.2916936874

>  <CNN_VS>  (156) 
1.5121351480

>  <CNNaffinity_variance>  (156) 
0.0722702295

$$$$
157
     RDKit          3D

 43 45  0  0  0  0  0  0  0  0999 V2000
   22.8806   73.7608   -6.8859 P   0  0  2  0  0  0  0  0  0  0  0  0
   22.5363   74.9504   -7.9269 O   0  0  0  0  0  0  0  0  0  0  0  0
   24.3389   73.4304   -6.7608 O   0  0  0  0  0  0  0  0  0  0  0  0
   21.9223   72.5445   -7.3553 O   0  0  0  0  0  0  0  0  0  0  0  0
   20.6473   72.4161   -6.7505 C   0  0  0  0  0  0  0  0  0  0  0  0
   18.8501   70.8804   -6.3198 O   0  0  0  0  0  0  0  0  0  0  0  0
   20.0326   69.1802   -8.4882 O   0  0  0  0  0  0  0  0  0  0  0  0
   17.9556   70.4067   -9.7605 O   0  0  0  0  0  0  0  0  0  0  0  0
   19.9584   70.6019   -8.3958 C   0  0  1  0  0  0  0  0  0  0  0  0
   18.5439   71.0731   -8.6619 C   0  0  2  0  0  0  0  0  0  0  0  0
   20.1526   70.9880   -6.9348 C   0  0  1  0  0  0  0  0  0  0  0  0
   17.8531   70.7547   -7.3468 C   0  0  2  0  0  0  0  0  0  0  0  0
   19.9116   68.9097   -9.4124 H   0  0  0  0  0  0  0  0  0  0  0  0
   18.4301   70.6416  -10.5731 H   0  0  0  0  0  0  0  0  0  0  0  0
   16.2008   70.5973   -5.0614 O   0  0  0  0  0  0  0  0  0  0  0  0
   13.7429   74.2734   -6.3598 O   0  0  0  0  0  0  0  0  0  0  0  0
   16.7740   71.6580   -7.0623 N   0  0  0  0  0  0  0  0  0  0  0  0
   14.9784   72.4280   -5.7096 N   0  0  0  0  0  0  0  0  0  0  0  0
   16.0044   71.4911   -5.8874 C   0  0  0  0  0  0  0  0  0  0  0  0
   16.4883   72.6956   -7.9430 C   0  0  0  0  0  0  0  0  0  0  0  0
   15.5055   73.5798   -7.7597 C   0  0  0  0  0  0  0  0  0  0  0  0
   14.6544   73.4759   -6.5568 C   0  0  0  0  0  0  0  0  0  0  0  0
   14.4289   72.3312   -4.8982 H   0  0  0  0  0  0  0  0  0  0  0  0
   22.1848   74.2637   -5.5162 O   0  0  0  0  0  0  0  0  0  0  0  0
   22.6721   75.3367   -4.4099 P   0  0  2  0  0  0  0  0  0  0  0  0
   21.3740   76.2820   -4.2128 O   0  0  0  0  0  0  0  0  0  0  0  0
   23.9258   76.0754   -4.7794 O   0  0  0  0  0  0  0  0  0  0  0  0
   22.7732   74.4920   -3.0383 O   0  0  0  0  0  0  0  0  0  0  0  0
   22.7009   72.1549   -2.6517 O   0  0  0  0  0  0  0  0  0  0  0  0
   20.6185   73.4388    0.6749 O   0  0  0  0  0  0  0  0  0  0  0  0
   23.2890   72.4264    0.9773 O   0  0  0  0  0  0  0  0  0  0  0  0
   20.2372   74.7669   -1.8687 O   0  0  0  0  0  0  0  0  0  0  0  0
   21.6182   73.5127   -0.3452 C   0  0  1  0  0  0  0  0  0  0  0  0
   22.5252   72.2872   -0.2175 C   0  0  1  0  0  0  0  0  0  0  0  0
   20.9360   73.5367   -1.7117 C   0  0  2  0  0  0  0  0  0  0  0  0
   23.4532   72.1559   -1.4327 C   0  0  1  0  0  0  0  0  0  0  0  0
   21.9423   73.3497   -2.8487 C   0  0  1  0  0  0  0  0  0  0  0  0
   21.0450   73.4237    1.5452 H   0  0  0  0  0  0  0  0  0  0  0  0
   22.6912   72.5089    1.7369 H   0  0  0  0  0  0  0  0  0  0  0  0
   19.6031   74.8733   -1.1431 H   0  0  0  0  0  0  0  0  0  0  0  0
   24.5733   70.4936   -2.7331 O   0  0  0  0  0  0  0  0  0  0  0  0
   24.2549   70.8564   -1.4022 C   0  0  0  0  0  0  0  0  0  0  0  0
   25.0839   69.6684   -2.7293 H   0  0  0  0  0  0  0  0  0  0  0  0
 25 28  1  0
 25 24  1  0
 25 26  1  1
 25 27  2  0
  1  4  1  0
  1 24  1  0
  1  2  1  6
  1  3  2  0
  6 11  1  0
  6 12  1  0
 29 36  1  0
 29 37  1  0
  9  7  1  1
  7 13  1  0
 10  8  1  6
  8 14  1  0
 37 28  1  1
  4  5  1  0
 33 30  1  1
 30 38  1  0
 34 31  1  1
 31 39  1  0
 35 32  1  6
 32 40  1  0
 41 42  1  0
 41 43  1  0
 15 19  2  0
 16 22  2  0
 12 17  1  1
 17 19  1  0
 17 20  1  0
 18 19  1  0
 18 22  1  0
 18 23  1  0
  9 10  1  0
  9 11  1  0
 10 12  1  0
 11  5  1  6
 33 34  1  0
 33 35  1  0
 34 36  1  0
 35 37  1  0
 36 42  1  1
 20 21  2  0
 21 22  1  0
M  CHG  2   2  -1  26  -1
M  END
>  <COMPND>  (157) 
    8629 

>  <AUTHOR>  (157) 
    GENERATED BY OPEN BABEL 3.1.1

>  <MASTER>  (157) 
        0    0    0    0    0    0    0    0   58    0   58    0

>  <minimizedAffinity>  (157) 
-7.41330

>  <CNNscore>  (157) 
0.3425640762

>  <CNNaffinity>  (157) 
4.0557870865

>  <CNN_VS>  (157) 
1.3893669844

>  <CNNaffinity_variance>  (157) 
0.4177373350

$$$$
158
     RDKit          3D

 43 45  0  0  0  0  0  0  0  0999 V2000
   17.8486   75.4437   -2.4790 P   0  0  2  0  0  0  0  0  0  0  0  0
   18.7444   76.5230   -3.2852 O   0  0  0  0  0  0  0  0  0  0  0  0
   16.5985   75.9948   -1.8584 O   0  0  0  0  0  0  0  0  0  0  0  0
   18.8965   74.7558   -1.4560 O   0  0  0  0  0  0  0  0  0  0  0  0
   18.5285   73.5408   -0.8266 C   0  0  0  0  0  0  0  0  0  0  0  0
   19.3232   71.2860   -0.5862 O   0  0  0  0  0  0  0  0  0  0  0  0
   21.9843   72.3256   -1.4966 O   0  0  0  0  0  0  0  0  0  0  0  0
   20.9972   71.1598   -3.7556 O   0  0  0  0  0  0  0  0  0  0  0  0
   20.6750   72.7113   -1.9116 C   0  0  1  0  0  0  0  0  0  0  0  0
   20.0721   71.6478   -2.8055 C   0  0  2  0  0  0  0  0  0  0  0  0
   19.7618   72.6580   -0.6932 C   0  0  1  0  0  0  0  0  0  0  0  0
   19.6549   70.5894   -1.7985 C   0  0  2  0  0  0  0  0  0  0  0  0
   22.5857   72.3523   -2.2579 H   0  0  0  0  0  0  0  0  0  0  0  0
   21.2314   71.8699   -4.3733 H   0  0  0  0  0  0  0  0  0  0  0  0
   19.7807   68.2863   -3.4288 O   0  0  0  0  0  0  0  0  0  0  0  0
   15.1980   67.7974   -3.4079 O   0  0  0  0  0  0  0  0  0  0  0  0
   18.5100   69.8403   -2.2339 N   0  0  0  0  0  0  0  0  0  0  0  0
   17.4988   68.0446   -3.4169 N   0  0  0  0  0  0  0  0  0  0  0  0
   18.6821   68.6991   -3.0517 C   0  0  0  0  0  0  0  0  0  0  0  0
   17.2342   70.2387   -1.8500 C   0  0  0  0  0  0  0  0  0  0  0  0
   16.1158   69.6043   -2.2079 C   0  0  0  0  0  0  0  0  0  0  0  0
   16.2078   68.4026   -3.0619 C   0  0  0  0  0  0  0  0  0  0  0  0
   17.5941   67.2472   -3.9868 H   0  0  0  0  0  0  0  0  0  0  0  0
   17.5995   74.2847   -3.5779 O   0  0  0  0  0  0  0  0  0  0  0  0
   16.2315   73.6560   -4.1663 P   0  0  2  0  0  0  0  0  0  0  0  0
   15.5046   74.9272   -4.8540 O   0  0  0  0  0  0  0  0  0  0  0  0
   15.3940   72.9411   -3.1457 O   0  0  0  0  0  0  0  0  0  0  0  0
   16.7043   72.7369   -5.4059 O   0  0  0  0  0  0  0  0  0  0  0  0
   18.7677   71.7412   -6.0121 O   0  0  0  0  0  0  0  0  0  0  0  0
   17.5739   73.0978   -9.7249 O   0  0  0  0  0  0  0  0  0  0  0  0
   17.4950   70.2850   -9.1504 O   0  0  0  0  0  0  0  0  0  0  0  0
   17.0742   74.7063   -7.3706 O   0  0  0  0  0  0  0  0  0  0  0  0
   17.3887   72.5581   -8.4135 C   0  0  1  0  0  0  0  0  0  0  0  0
   18.1581   71.2386   -8.3250 C   0  0  1  0  0  0  0  0  0  0  0  0
   17.9139   73.5568   -7.3839 C   0  0  2  0  0  0  0  0  0  0  0  0
   18.2289   70.7347   -6.8772 C   0  0  1  0  0  0  0  0  0  0  0  0
   17.9902   72.9397   -5.9863 C   0  0  1  0  0  0  0  0  0  0  0  0
   17.2420   72.4687  -10.3834 H   0  0  0  0  0  0  0  0  0  0  0  0
   17.4567   70.6156  -10.0617 H   0  0  0  0  0  0  0  0  0  0  0  0
   17.0344   75.0878   -8.2610 H   0  0  0  0  0  0  0  0  0  0  0  0
   19.7238   69.2461   -7.9989 O   0  0  0  0  0  0  0  0  0  0  0  0
   19.1242   69.5049   -6.7427 C   0  0  0  0  0  0  0  0  0  0  0  0
   20.2968   68.4661   -7.9284 H   0  0  0  0  0  0  0  0  0  0  0  0
 25 28  1  0
 25 24  1  0
 25 26  1  6
 25 27  2  0
  1  4  1  0
  1 24  1  0
  1  2  1  6
  1  3  2  0
  6 11  1  0
  6 12  1  0
 29 36  1  0
 29 37  1  0
  9  7  1  1
  7 13  1  0
 10  8  1  6
  8 14  1  0
 37 28  1  6
  4  5  1  0
 33 30  1  6
 30 38  1  0
 34 31  1  6
 31 39  1  0
 35 32  1  1
 32 40  1  0
 41 42  1  0
 41 43  1  0
 15 19  2  0
 16 22  2  0
 12 17  1  6
 17 19  1  0
 17 20  1  0
 18 19  1  0
 18 22  1  0
 18 23  1  0
  9 10  1  0
  9 11  1  0
 10 12  1  0
 11  5  1  6
 33 34  1  0
 33 35  1  0
 34 36  1  0
 35 37  1  0
 36 42  1  6
 20 21  2  0
 21 22  1  0
M  CHG  2   2  -1  26  -1
M  END
>  <COMPND>  (158) 
    8629 

>  <AUTHOR>  (158) 
    GENERATED BY OPEN BABEL 3.1.1

>  <MASTER>  (158) 
        0    0    0    0    0    0    0    0   58    0   58    0

>  <minimizedAffinity>  (158) 
-6.14975

>  <CNNscore>  (158) 
0.3363699615

>  <CNNaffinity>  (158) 
3.8296751976

>  <CNN_VS>  (158) 
1.2881877422

>  <CNNaffinity_variance>  (158) 
0.6325836182

$$$$
159
     RDKit          3D

 43 45  0  0  0  0  0  0  0  0999 V2000
   17.6449   70.9574   -2.1599 P   0  0  2  0  0  0  0  0  0  0  0  0
   17.3953   72.5530   -2.0640 O   0  0  0  0  0  0  0  0  0  0  0  0
   16.4180   70.1122   -1.9814 O   0  0  0  0  0  0  0  0  0  0  0  0
   18.8432   70.6877   -1.1068 O   0  0  0  0  0  0  0  0  0  0  0  0
   19.4850   71.8026   -0.5128 C   0  0  0  0  0  0  0  0  0  0  0  0
   21.4000   71.4023   -1.9079 O   0  0  0  0  0  0  0  0  0  0  0  0
   23.0548   72.2877    0.4306 O   0  0  0  0  0  0  0  0  0  0  0  0
   23.0392   74.5032   -1.1593 O   0  0  0  0  0  0  0  0  0  0  0  0
   21.7850   72.7668   -0.0090 C   0  0  1  0  0  0  0  0  0  0  0  0
   21.9450   73.6141   -1.2540 C   0  0  2  0  0  0  0  0  0  0  0  0
   20.9907   71.5772   -0.5338 C   0  0  1  0  0  0  0  0  0  0  0  0
   22.1401   72.5594   -2.3300 C   0  0  2  0  0  0  0  0  0  0  0  0
   23.5801   73.0296    0.7705 H   0  0  0  0  0  0  0  0  0  0  0  0
   22.8673   75.1546   -0.4616 H   0  0  0  0  0  0  0  0  0  0  0  0
   23.6132   72.4087   -4.7352 O   0  0  0  0  0  0  0  0  0  0  0  0
   20.1551   74.2251   -7.1813 O   0  0  0  0  0  0  0  0  0  0  0  0
   21.6489   72.9855   -3.6101 N   0  0  0  0  0  0  0  0  0  0  0  0
   21.8901   73.3131   -5.9512 N   0  0  0  0  0  0  0  0  0  0  0  0
   22.4694   72.8678   -4.7562 C   0  0  0  0  0  0  0  0  0  0  0  0
   20.3669   73.5130   -3.7199 C   0  0  0  0  0  0  0  0  0  0  0  0
   19.8298   73.9343   -4.8667 C   0  0  0  0  0  0  0  0  0  0  0  0
   20.6208   73.8460   -6.1111 C   0  0  0  0  0  0  0  0  0  0  0  0
   22.4433   73.2411   -6.7628 H   0  0  0  0  0  0  0  0  0  0  0  0
   18.3751   70.7892   -3.5922 O   0  0  0  0  0  0  0  0  0  0  0  0
   19.1541   69.5324   -4.2455 P   0  0  2  0  0  0  0  0  0  0  0  0
   18.0552   68.3462   -4.1919 O   0  0  0  0  0  0  0  0  0  0  0  0
   20.4566   69.2006   -3.5766 O   0  0  0  0  0  0  0  0  0  0  0  0
   19.2812   69.9000   -5.8119 O   0  0  0  0  0  0  0  0  0  0  0  0
   17.0500   70.2810   -6.5143 O   0  0  0  0  0  0  0  0  0  0  0  0
   19.0012   71.0440  -10.0725 O   0  0  0  0  0  0  0  0  0  0  0  0
   17.8761   73.2224   -8.5770 O   0  0  0  0  0  0  0  0  0  0  0  0
   19.9143   68.8993   -8.3561 O   0  0  0  0  0  0  0  0  0  0  0  0
   18.8389   71.0342   -8.6516 C   0  0  1  0  0  0  0  0  0  0  0  0
   17.5933   71.8524   -8.3056 C   0  0  1  0  0  0  0  0  0  0  0  0
   18.6828   69.5906   -8.1770 C   0  0  2  0  0  0  0  0  0  0  0  0
   17.2015   71.6692   -6.8332 C   0  0  1  0  0  0  0  0  0  0  0  0
   18.2440   69.5216   -6.7132 C   0  0  1  0  0  0  0  0  0  0  0  0
   19.1013   71.9577  -10.3803 H   0  0  0  0  0  0  0  0  0  0  0  0
   18.1225   73.3243   -9.5097 H   0  0  0  0  0  0  0  0  0  0  0  0
   20.1811   68.9501   -9.2867 H   0  0  0  0  0  0  0  0  0  0  0  0
   15.3106   71.7135   -5.3733 O   0  0  0  0  0  0  0  0  0  0  0  0
   15.8742   72.3496   -6.5056 C   0  0  0  0  0  0  0  0  0  0  0  0
   14.4654   72.1364   -5.1530 H   0  0  0  0  0  0  0  0  0  0  0  0
 25 28  1  0
 25 24  1  0
 25 26  1  6
 25 27  2  0
  1  4  1  0
  1 24  1  0
  1  2  1  6
  1  3  2  0
  6 11  1  0
  6 12  1  0
 29 36  1  0
 29 37  1  0
  9  7  1  6
  7 13  1  0
 10  8  1  1
  8 14  1  0
 37 28  1  1
  4  5  1  0
 33 30  1  6
 30 38  1  0
 34 31  1  1
 31 39  1  0
 35 32  1  1
 32 40  1  0
 41 42  1  0
 41 43  1  0
 15 19  2  0
 16 22  2  0
 12 17  1  6
 17 19  1  0
 17 20  1  0
 18 19  1  0
 18 22  1  0
 18 23  1  0
  9 10  1  0
  9 11  1  0
 10 12  1  0
 11  5  1  6
 33 34  1  0
 33 35  1  0
 34 36  1  0
 35 37  1  0
 36 42  1  6
 20 21  2  0
 21 22  1  0
M  CHG  2   2  -1  26  -1
M  END
>  <COMPND>  (159) 
    8629 

>  <AUTHOR>  (159) 
    GENERATED BY OPEN BABEL 3.1.1

>  <MASTER>  (159) 
        0    0    0    0    0    0    0    0   58    0   58    0

>  <minimizedAffinity>  (159) 
-7.55590

>  <CNNscore>  (159) 
0.3074205816

>  <CNNaffinity>  (159) 
3.9556775093

>  <CNN_VS>  (159) 
1.2160567045

>  <CNNaffinity_variance>  (159) 
0.3908007145

$$$$
160
     RDKit          3D

 43 45  0  0  0  0  0  0  0  0999 V2000
   21.6271   73.9368   -6.6537 P   0  0  2  0  0  0  0  0  0  0  0  0
   20.5785   75.1100   -7.0299 O   0  0  0  0  0  0  0  0  0  0  0  0
   22.9114   73.9621   -7.4291 O   0  0  0  0  0  0  0  0  0  0  0  0
   20.7549   72.5802   -6.7831 O   0  0  0  0  0  0  0  0  0  0  0  0
   19.3896   72.6863   -7.1473 C   0  0  0  0  0  0  0  0  0  0  0  0
   18.5855   70.4941   -6.5802 O   0  0  0  0  0  0  0  0  0  0  0  0
   17.6038   70.3270   -9.4085 O   0  0  0  0  0  0  0  0  0  0  0  0
   15.3312   70.9250   -8.0249 O   0  0  0  0  0  0  0  0  0  0  0  0
   17.6491   71.4535   -8.5343 C   0  0  1  0  0  0  0  0  0  0  0  0
   16.5658   71.3459   -7.4814 C   0  0  2  0  0  0  0  0  0  0  0  0
   18.9178   71.3473   -7.6974 C   0  0  1  0  0  0  0  0  0  0  0  0
   17.1593   70.3287   -6.5216 C   0  0  2  0  0  0  0  0  0  0  0  0
   16.8021   70.3730   -9.9536 H   0  0  0  0  0  0  0  0  0  0  0  0
   14.9947   71.6055   -8.6285 H   0  0  0  0  0  0  0  0  0  0  0  0
   16.2388   68.2729   -4.8173 O   0  0  0  0  0  0  0  0  0  0  0  0
   15.5039   71.2231   -1.3535 O   0  0  0  0  0  0  0  0  0  0  0  0
   16.7215   70.5313   -5.1693 N   0  0  0  0  0  0  0  0  0  0  0  0
   15.8738   69.7435   -3.0939 N   0  0  0  0  0  0  0  0  0  0  0  0
   16.2771   69.4318   -4.3986 C   0  0  0  0  0  0  0  0  0  0  0  0
   16.7360   71.8089   -4.6203 C   0  0  0  0  0  0  0  0  0  0  0  0
   16.3469   72.0896   -3.3749 C   0  0  0  0  0  0  0  0  0  0  0  0
   15.8685   70.9972   -2.5033 C   0  0  0  0  0  0  0  0  0  0  0  0
   15.5599   68.9933   -2.5386 H   0  0  0  0  0  0  0  0  0  0  0  0
   21.8027   74.1049   -5.0556 O   0  0  0  0  0  0  0  0  0  0  0  0
   22.8050   73.3791   -4.0157 P   0  0  2  0  0  0  0  0  0  0  0  0
   23.5783   74.6181   -3.3196 O   0  0  0  0  0  0  0  0  0  0  0  0
   23.7096   72.3586   -4.6434 O   0  0  0  0  0  0  0  0  0  0  0  0
   21.8420   72.7977   -2.8583 O   0  0  0  0  0  0  0  0  0  0  0  0
   20.0685   71.4796   -3.7151 O   0  0  0  0  0  0  0  0  0  0  0  0
   18.7743   71.8712    0.1865 O   0  0  0  0  0  0  0  0  0  0  0  0
   19.7982   69.3462   -0.7210 O   0  0  0  0  0  0  0  0  0  0  0  0
   20.0458   74.1055   -1.1442 O   0  0  0  0  0  0  0  0  0  0  0  0
   19.7418   71.7334   -0.8577 C   0  0  1  0  0  0  0  0  0  0  0  0
   19.4675   70.4215   -1.5955 C   0  0  1  0  0  0  0  0  0  0  0  0
   19.6207   72.9214   -1.8103 C   0  0  2  0  0  0  0  0  0  0  0  0
   20.2891   70.3308   -2.8885 C   0  0  1  0  0  0  0  0  0  0  0  0
   20.4379   72.7082   -3.0858 C   0  0  1  0  0  0  0  0  0  0  0  0
   18.8462   71.1203    0.7952 H   0  0  0  0  0  0  0  0  0  0  0  0
   19.2729   69.4154    0.0916 H   0  0  0  0  0  0  0  0  0  0  0  0
   19.5208   74.2294   -0.3387 H   0  0  0  0  0  0  0  0  0  0  0  0
   18.8366   68.4437   -3.0836 O   0  0  0  0  0  0  0  0  0  0  0  0
   19.9151   69.1051   -3.7190 C   0  0  0  0  0  0  0  0  0  0  0  0
   18.5875   67.6617   -3.6013 H   0  0  0  0  0  0  0  0  0  0  0  0
 25 28  1  0
 25 24  1  0
 25 26  1  1
 25 27  2  0
  1  4  1  0
  1 24  1  0
  1  2  1  6
  1  3  2  0
  6 11  1  0
  6 12  1  0
 29 36  1  0
 29 37  1  0
  9  7  1  6
  7 13  1  0
 10  8  1  6
  8 14  1  0
 37 28  1  1
  4  5  1  0
 33 30  1  1
 30 38  1  0
 34 31  1  1
 31 39  1  0
 35 32  1  1
 32 40  1  0
 41 42  1  0
 41 43  1  0
 15 19  2  0
 16 22  2  0
 12 17  1  1
 17 19  1  0
 17 20  1  0
 18 19  1  0
 18 22  1  0
 18 23  1  0
  9 10  1  0
  9 11  1  0
 10 12  1  0
 11  5  1  1
 33 34  1  0
 33 35  1  0
 34 36  1  0
 35 37  1  0
 36 42  1  6
 20 21  2  0
 21 22  1  0
M  CHG  2   2  -1  26  -1
M  END
>  <COMPND>  (160) 
    8629 

>  <AUTHOR>  (160) 
    GENERATED BY OPEN BABEL 3.1.1

>  <MASTER>  (160) 
        0    0    0    0    0    0    0    0   58    0   58    0

>  <minimizedAffinity>  (160) 
-7.27769

>  <CNNscore>  (160) 
0.3041375279

>  <CNNaffinity>  (160) 
3.8088240623

>  <CNN_VS>  (160) 
1.1584063768

>  <CNNaffinity_variance>  (160) 
1.0012277365

$$$$
161
     RDKit          3D

 43 45  0  0  0  0  0  0  0  0999 V2000
   20.4800   70.5258   -1.6067 P   0  0  2  0  0  0  0  0  0  0  0  0
   20.1688   69.2974   -0.6010 O   0  0  0  0  0  0  0  0  0  0  0  0
   19.6075   71.7325   -1.4224 O   0  0  0  0  0  0  0  0  0  0  0  0
   20.4385   69.8463   -3.0744 O   0  0  0  0  0  0  0  0  0  0  0  0
   19.5484   68.7659   -3.2943 C   0  0  0  0  0  0  0  0  0  0  0  0
   17.8247   70.2199   -4.1242 O   0  0  0  0  0  0  0  0  0  0  0  0
   15.9086   68.5459   -2.5376 O   0  0  0  0  0  0  0  0  0  0  0  0
   15.5716   67.5951   -5.0712 O   0  0  0  0  0  0  0  0  0  0  0  0
   17.0808   68.1480   -3.2470 C   0  0  1  0  0  0  0  0  0  0  0  0
   16.8225   68.1622   -4.7392 C   0  0  2  0  0  0  0  0  0  0  0  0
   18.1195   69.2519   -3.0934 C   0  0  1  0  0  0  0  0  0  0  0  0
   16.8948   69.6460   -5.0574 C   0  0  2  0  0  0  0  0  0  0  0  0
   15.2308   67.8562   -2.6209 H   0  0  0  0  0  0  0  0  0  0  0  0
   15.5756   66.6507   -4.8502 H   0  0  0  0  0  0  0  0  0  0  0  0
   15.5419   71.2610   -6.9387 O   0  0  0  0  0  0  0  0  0  0  0  0
   18.7674   70.5401  -10.1508 O   0  0  0  0  0  0  0  0  0  0  0  0
   17.3587   69.8978   -6.3926 N   0  0  0  0  0  0  0  0  0  0  0  0
   17.1492   70.9009   -8.5365 N   0  0  0  0  0  0  0  0  0  0  0  0
   16.6039   70.7229   -7.2586 C   0  0  0  0  0  0  0  0  0  0  0  0
   18.5499   69.3298   -6.8310 C   0  0  0  0  0  0  0  0  0  0  0  0
   19.0555   69.5083   -8.0532 C   0  0  0  0  0  0  0  0  0  0  0  0
   18.3286   70.3567   -9.0196 C   0  0  0  0  0  0  0  0  0  0  0  0
   16.6404   71.4715   -9.1572 H   0  0  0  0  0  0  0  0  0  0  0  0
   22.0572   70.7944   -1.3752 O   0  0  0  0  0  0  0  0  0  0  0  0
   23.1143   71.6918   -2.2059 P   0  0  2  0  0  0  0  0  0  0  0  0
   24.3397   70.6697   -2.4726 O   0  0  0  0  0  0  0  0  0  0  0  0
   23.5101   72.9679   -1.5212 O   0  0  0  0  0  0  0  0  0  0  0  0
   22.4298   71.8940   -3.6535 O   0  0  0  0  0  0  0  0  0  0  0  0
   22.9613   74.0141   -4.5695 O   0  0  0  0  0  0  0  0  0  0  0  0
   20.1033   72.8144   -7.2977 O   0  0  0  0  0  0  0  0  0  0  0  0
   22.8685   72.8669   -8.0715 O   0  0  0  0  0  0  0  0  0  0  0  0
   19.7681   72.1968   -4.4896 O   0  0  0  0  0  0  0  0  0  0  0  0
   21.1891   72.6352   -6.3843 C   0  0  1  0  0  0  0  0  0  0  0  0
   22.3737   73.4680   -6.8782 C   0  0  1  0  0  0  0  0  0  0  0  0
   20.7525   73.0930   -4.9939 C   0  0  2  0  0  0  0  0  0  0  0  0
   23.4805   73.5403   -5.8176 C   0  0  1  0  0  0  0  0  0  0  0  0
   21.9367   73.1773   -4.0293 C   0  0  1  0  0  0  0  0  0  0  0  0
   20.3738   72.5251   -8.1824 H   0  0  0  0  0  0  0  0  0  0  0  0
   22.1597   72.8268   -8.7328 H   0  0  0  0  0  0  0  0  0  0  0  0
   19.0237   72.1525   -5.1090 H   0  0  0  0  0  0  0  0  0  0  0  0
   25.1222   74.0687   -7.4712 O   0  0  0  0  0  0  0  0  0  0  0  0
   24.6017   74.4937   -6.2251 C   0  0  0  0  0  0  0  0  0  0  0  0
   25.8366   74.6665   -7.7433 H   0  0  0  0  0  0  0  0  0  0  0  0
 25 28  1  0
 25 24  1  0
 25 26  1  6
 25 27  2  0
  1  4  1  0
  1 24  1  0
  1  2  1  1
  1  3  2  0
  6 11  1  0
  6 12  1  0
 29 36  1  0
 29 37  1  0
  9  7  1  1
  7 13  1  0
 10  8  1  1
  8 14  1  0
 37 28  1  6
  4  5  1  0
 33 30  1  6
 30 38  1  0
 34 31  1  6
 31 39  1  0
 35 32  1  1
 32 40  1  0
 41 42  1  0
 41 43  1  0
 15 19  2  0
 16 22  2  0
 12 17  1  6
 17 19  1  0
 17 20  1  0
 18 19  1  0
 18 22  1  0
 18 23  1  0
  9 10  1  0
  9 11  1  0
 10 12  1  0
 11  5  1  6
 33 34  1  0
 33 35  1  0
 34 36  1  0
 35 37  1  0
 36 42  1  6
 20 21  2  0
 21 22  1  0
M  CHG  2   2  -1  26  -1
M  END
>  <COMPND>  (161) 
    8629 

>  <AUTHOR>  (161) 
    GENERATED BY OPEN BABEL 3.1.1

>  <MASTER>  (161) 
        0    0    0    0    0    0    0    0   58    0   58    0

>  <minimizedAffinity>  (161) 
-8.61365

>  <CNNscore>  (161) 
0.6153887510

>  <CNNaffinity>  (161) 
4.4607100487

>  <CNN_VS>  (161) 
2.7450706959

>  <CNNaffinity_variance>  (161) 
0.7001333237

$$$$
162
     RDKit          3D

 43 45  0  0  0  0  0  0  0  0999 V2000
   19.9616   73.3230   -3.9083 P   0  0  2  0  0  0  0  0  0  0  0  0
   20.0073   72.4741   -2.5319 O   0  0  0  0  0  0  0  0  0  0  0  0
   19.7174   74.7937   -3.7381 O   0  0  0  0  0  0  0  0  0  0  0  0
   18.8814   72.5320   -4.8168 O   0  0  0  0  0  0  0  0  0  0  0  0
   18.7679   72.8771   -6.1864 C   0  0  0  0  0  0  0  0  0  0  0  0
   18.2951   70.5232   -6.0900 O   0  0  0  0  0  0  0  0  0  0  0  0
   17.5958   70.7348   -8.9981 O   0  0  0  0  0  0  0  0  0  0  0  0
   15.1474   70.7229   -7.7974 O   0  0  0  0  0  0  0  0  0  0  0  0
   17.3794   71.6753   -7.9474 C   0  0  1  0  0  0  0  0  0  0  0  0
   16.2447   71.2158   -7.0558 C   0  0  2  0  0  0  0  0  0  0  0  0
   18.5733   71.6071   -7.0033 C   0  0  1  0  0  0  0  0  0  0  0  0
   16.9165   70.1393   -6.2204 C   0  0  2  0  0  0  0  0  0  0  0  0
   16.8463   70.7604   -9.6141 H   0  0  0  0  0  0  0  0  0  0  0  0
   14.7542   71.4450   -8.3118 H   0  0  0  0  0  0  0  0  0  0  0  0
   16.7285   67.7233   -4.7694 O   0  0  0  0  0  0  0  0  0  0  0  0
   14.6808   69.8093   -1.2062 O   0  0  0  0  0  0  0  0  0  0  0  0
   16.3392   70.0223   -4.9110 N   0  0  0  0  0  0  0  0  0  0  0  0
   15.7092   68.7639   -2.9963 N   0  0  0  0  0  0  0  0  0  0  0  0
   16.2929   68.7625   -4.2697 C   0  0  0  0  0  0  0  0  0  0  0  0
   15.8271   71.1487   -4.2763 C   0  0  0  0  0  0  0  0  0  0  0  0
   15.2726   71.1329   -3.0624 C   0  0  0  0  0  0  0  0  0  0  0  0
   15.1850   69.8566   -2.3240 C   0  0  0  0  0  0  0  0  0  0  0  0
   15.6656   67.8974   -2.5306 H   0  0  0  0  0  0  0  0  0  0  0  0
   21.3690   72.9517   -4.6113 O   0  0  0  0  0  0  0  0  0  0  0  0
   22.8183   73.6626   -4.5262 P   0  0  2  0  0  0  0  0  0  0  0  0
   23.8405   72.4681   -4.9082 O   0  0  0  0  0  0  0  0  0  0  0  0
   23.1030   74.3236   -3.2087 O   0  0  0  0  0  0  0  0  0  0  0  0
   22.8606   74.6572   -5.7966 O   0  0  0  0  0  0  0  0  0  0  0  0
   21.2074   75.4090   -7.3191 O   0  0  0  0  0  0  0  0  0  0  0  0
   24.3173   74.8046   -9.9675 O   0  0  0  0  0  0  0  0  0  0  0  0
   23.5293   77.4827   -9.2933 O   0  0  0  0  0  0  0  0  0  0  0  0
   23.9127   72.9631   -7.7709 O   0  0  0  0  0  0  0  0  0  0  0  0
   23.7206   75.1686   -8.7197 C   0  0  1  0  0  0  0  0  0  0  0  0
   22.7566   76.3300   -8.9699 C   0  0  1  0  0  0  0  0  0  0  0  0
   22.9738   73.9626   -8.1529 C   0  0  2  0  0  0  0  0  0  0  0  0
   21.8835   76.6006   -7.7372 C   0  0  1  0  0  0  0  0  0  0  0  0
   22.0975   74.3503   -6.9605 C   0  0  1  0  0  0  0  0  0  0  0  0
   24.7935   75.5658  -10.3325 H   0  0  0  0  0  0  0  0  0  0  0  0
   24.0764   77.2984  -10.0730 H   0  0  0  0  0  0  0  0  0  0  0  0
   24.4611   72.7261   -8.5344 H   0  0  0  0  0  0  0  0  0  0  0  0
   20.6638   77.7812   -9.4187 O   0  0  0  0  0  0  0  0  0  0  0  0
   20.8085   77.6487   -8.0167 C   0  0  0  0  0  0  0  0  0  0  0  0
   19.9826   78.4448   -9.6116 H   0  0  0  0  0  0  0  0  0  0  0  0
 25 28  1  0
 25 24  1  0
 25 26  1  6
 25 27  2  0
  1  4  1  0
  1 24  1  0
  1  2  1  1
  1  3  2  0
  6 11  1  0
  6 12  1  0
 29 36  1  0
 29 37  1  0
  9  7  1  6
  7 13  1  0
 10  8  1  6
  8 14  1  0
 37 28  1  1
  4  5  1  0
 33 30  1  6
 30 38  1  0
 34 31  1  1
 31 39  1  0
 35 32  1  1
 32 40  1  0
 41 42  1  0
 41 43  1  0
 15 19  2  0
 16 22  2  0
 12 17  1  1
 17 19  1  0
 17 20  1  0
 18 19  1  0
 18 22  1  0
 18 23  1  0
  9 10  1  0
  9 11  1  0
 10 12  1  0
 11  5  1  1
 33 34  1  0
 33 35  1  0
 34 36  1  0
 35 37  1  0
 36 42  1  6
 20 21  2  0
 21 22  1  0
M  CHG  2   2  -1  26  -1
M  END
>  <COMPND>  (162) 
    8629 

>  <AUTHOR>  (162) 
    GENERATED BY OPEN BABEL 3.1.1

>  <MASTER>  (162) 
        0    0    0    0    0    0    0    0   58    0   58    0

>  <minimizedAffinity>  (162) 
-6.49511

>  <CNNscore>  (162) 
0.5965496302

>  <CNNaffinity>  (162) 
4.2714548111

>  <CNN_VS>  (162) 
2.5481348038

>  <CNNaffinity_variance>  (162) 
0.0802081078

$$$$
163
     RDKit          3D

 43 45  0  0  0  0  0  0  0  0999 V2000
   21.2501   70.9567   -1.7146 P   0  0  2  0  0  0  0  0  0  0  0  0
   22.8654   70.9714   -1.6243 O   0  0  0  0  0  0  0  0  0  0  0  0
   20.5660   70.0981   -0.6918 O   0  0  0  0  0  0  0  0  0  0  0  0
   20.9508   70.5822   -3.2600 O   0  0  0  0  0  0  0  0  0  0  0  0
   20.1700   69.4330   -3.5381 C   0  0  0  0  0  0  0  0  0  0  0  0
   18.2166   70.5730   -4.3496 O   0  0  0  0  0  0  0  0  0  0  0  0
   16.6507   68.8258   -2.4824 O   0  0  0  0  0  0  0  0  0  0  0  0
   16.2746   67.6070   -4.8927 O   0  0  0  0  0  0  0  0  0  0  0  0
   17.8153   68.5149   -3.2455 C   0  0  1  0  0  0  0  0  0  0  0  0
   17.4584   68.3565   -4.7087 C   0  0  2  0  0  0  0  0  0  0  0  0
   18.7059   69.7509   -3.2673 C   0  0  1  0  0  0  0  0  0  0  0  0
   17.3111   69.8011   -5.1553 C   0  0  2  0  0  0  0  0  0  0  0  0
   16.0667   68.0512   -2.4539 H   0  0  0  0  0  0  0  0  0  0  0  0
   16.4191   66.6956   -4.5940 H   0  0  0  0  0  0  0  0  0  0  0  0
   15.8531   71.4221   -6.9510 O   0  0  0  0  0  0  0  0  0  0  0  0
   18.6917   70.4251  -10.4424 O   0  0  0  0  0  0  0  0  0  0  0  0
   17.6470   69.9836   -6.5392 N   0  0  0  0  0  0  0  0  0  0  0  0
   17.2678   70.9245   -8.6880 N   0  0  0  0  0  0  0  0  0  0  0  0
   16.8487   70.8182   -7.3556 C   0  0  0  0  0  0  0  0  0  0  0  0
   18.7574   69.3390   -7.0736 C   0  0  0  0  0  0  0  0  0  0  0  0
   19.1428   69.4497   -8.3465 C   0  0  0  0  0  0  0  0  0  0  0  0
   18.3630   70.3028   -9.2665 C   0  0  0  0  0  0  0  0  0  0  0  0
   16.7266   71.5004   -9.2756 H   0  0  0  0  0  0  0  0  0  0  0  0
   20.8677   72.5255   -1.6403 O   0  0  0  0  0  0  0  0  0  0  0  0
   19.4514   73.2828   -1.8243 P   0  0  2  0  0  0  0  0  0  0  0  0
   19.8019   74.8192   -1.4581 O   0  0  0  0  0  0  0  0  0  0  0  0
   18.3298   72.6944   -1.0183 O   0  0  0  0  0  0  0  0  0  0  0  0
   19.1969   73.2915   -3.4181 O   0  0  0  0  0  0  0  0  0  0  0  0
   21.0894   74.2912   -4.4358 O   0  0  0  0  0  0  0  0  0  0  0  0
   18.7588   73.7184   -7.7960 O   0  0  0  0  0  0  0  0  0  0  0  0
   21.0689   72.0652   -7.3740 O   0  0  0  0  0  0  0  0  0  0  0  0
   17.5263   74.5266   -5.3045 O   0  0  0  0  0  0  0  0  0  0  0  0
   19.2840   73.3990   -6.5046 C   0  0  1  0  0  0  0  0  0  0  0  0
   20.8016   73.2492   -6.6278 C   0  0  1  0  0  0  0  0  0  0  0  0
   18.9317   74.5219   -5.5308 C   0  0  2  0  0  0  0  0  0  0  0  0
   21.4645   73.1711   -5.2460 C   0  0  1  0  0  0  0  0  0  0  0  0
   19.6817   74.3761   -4.2055 C   0  0  1  0  0  0  0  0  0  0  0  0
   18.9785   73.0091   -8.4190 H   0  0  0  0  0  0  0  0  0  0  0  0
   20.6444   72.1272   -8.2442 H   0  0  0  0  0  0  0  0  0  0  0  0
   17.0630   74.6198   -6.1510 H   0  0  0  0  0  0  0  0  0  0  0  0
   23.4980   72.1670   -4.4940 O   0  0  0  0  0  0  0  0  0  0  0  0
   22.9886   73.1802   -5.3414 C   0  0  0  0  0  0  0  0  0  0  0  0
   24.4671   72.1608   -4.5448 H   0  0  0  0  0  0  0  0  0  0  0  0
 25 28  1  0
 25 24  1  0
 25 26  1  1
 25 27  2  0
  1  4  1  0
  1 24  1  0
  1  2  1  6
  1  3  2  0
  6 11  1  0
  6 12  1  0
 29 36  1  0
 29 37  1  0
  9  7  1  1
  7 13  1  0
 10  8  1  1
  8 14  1  0
 37 28  1  6
  4  5  1  0
 33 30  1  6
 30 38  1  0
 34 31  1  6
 31 39  1  0
 35 32  1  1
 32 40  1  0
 41 42  1  0
 41 43  1  0
 15 19  2  0
 16 22  2  0
 12 17  1  6
 17 19  1  0
 17 20  1  0
 18 19  1  0
 18 22  1  0
 18 23  1  0
  9 10  1  0
  9 11  1  0
 10 12  1  0
 11  5  1  6
 33 34  1  0
 33 35  1  0
 34 36  1  0
 35 37  1  0
 36 42  1  6
 20 21  2  0
 21 22  1  0
M  CHG  2   2  -1  26  -1
M  END
>  <COMPND>  (163) 
    8629 

>  <AUTHOR>  (163) 
    GENERATED BY OPEN BABEL 3.1.1

>  <MASTER>  (163) 
        0    0    0    0    0    0    0    0   58    0   58    0

>  <minimizedAffinity>  (163) 
-7.52126

>  <CNNscore>  (163) 
0.5545918345

>  <CNNaffinity>  (163) 
4.2703738213

>  <CNN_VS>  (163) 
2.3683145046

>  <CNNaffinity_variance>  (163) 
0.6572068334

$$$$
164
     RDKit          3D

 43 45  0  0  0  0  0  0  0  0999 V2000
   20.0216   70.8314   -1.0019 P   0  0  2  0  0  0  0  0  0  0  0  0
   20.1802   69.2477   -0.7122 O   0  0  0  0  0  0  0  0  0  0  0  0
   18.9007   71.5017   -0.2632 O   0  0  0  0  0  0  0  0  0  0  0  0
   19.9554   70.9264   -2.6158 O   0  0  0  0  0  0  0  0  0  0  0  0
   19.3084   69.8864   -3.3282 C   0  0  0  0  0  0  0  0  0  0  0  0
   17.4381   70.8612   -4.4796 O   0  0  0  0  0  0  0  0  0  0  0  0
   15.7102   69.1056   -2.7699 O   0  0  0  0  0  0  0  0  0  0  0  0
   15.7692   67.7559   -5.1387 O   0  0  0  0  0  0  0  0  0  0  0  0
   16.9918   68.8347   -3.3351 C   0  0  1  0  0  0  0  0  0  0  0  0
   16.8680   68.5868   -4.8240 C   0  0  2  0  0  0  0  0  0  0  0  0
   17.8047   70.1226   -3.2936 C   0  0  1  0  0  0  0  0  0  0  0  0
   16.7086   69.9970   -5.3661 C   0  0  2  0  0  0  0  0  0  0  0  0
   15.1729   68.2975   -2.7851 H   0  0  0  0  0  0  0  0  0  0  0  0
   15.9180   66.8702   -4.7724 H   0  0  0  0  0  0  0  0  0  0  0  0
   15.5012   71.5237   -7.4129 O   0  0  0  0  0  0  0  0  0  0  0  0
   18.8273   70.4595  -10.4204 O   0  0  0  0  0  0  0  0  0  0  0  0
   17.2377   70.1367   -6.6935 N   0  0  0  0  0  0  0  0  0  0  0  0
   17.1584   70.9927   -8.9087 N   0  0  0  0  0  0  0  0  0  0  0  0
   16.5534   70.9257   -7.6472 C   0  0  0  0  0  0  0  0  0  0  0  0
   18.4227   69.4956   -7.0381 C   0  0  0  0  0  0  0  0  0  0  0  0
   18.9859   69.5686   -8.2459 C   0  0  0  0  0  0  0  0  0  0  0  0
   18.3345   70.3727   -9.3000 C   0  0  0  0  0  0  0  0  0  0  0  0
   16.6993   71.5364   -9.5894 H   0  0  0  0  0  0  0  0  0  0  0  0
   21.4920   71.4118   -0.6639 O   0  0  0  0  0  0  0  0  0  0  0  0
   21.9722   72.8864   -0.2082 P   0  0  2  0  0  0  0  0  0  0  0  0
   23.2065   72.5820    0.7924 O   0  0  0  0  0  0  0  0  0  0  0  0
   20.8841   73.7306    0.3897 O   0  0  0  0  0  0  0  0  0  0  0  0
   22.6607   73.5168   -1.5248 O   0  0  0  0  0  0  0  0  0  0  0  0
   21.7725   75.2330   -2.8968 O   0  0  0  0  0  0  0  0  0  0  0  0
   23.9005   73.1413   -5.7511 O   0  0  0  0  0  0  0  0  0  0  0  0
   24.8637   75.6931   -4.8517 O   0  0  0  0  0  0  0  0  0  0  0  0
   22.4894   71.7118   -3.6667 O   0  0  0  0  0  0  0  0  0  0  0  0
   23.6431   73.6758   -4.4498 C   0  0  1  0  0  0  0  0  0  0  0  0
   23.5583   75.1991   -4.5652 C   0  0  1  0  0  0  0  0  0  0  0  0
   22.3279   73.1022   -3.9259 C   0  0  2  0  0  0  0  0  0  0  0  0
   23.0230   75.8238   -3.2697 C   0  0  1  0  0  0  0  0  0  0  0  0
   21.8595   73.8262   -2.6622 C   0  0  1  0  0  0  0  0  0  0  0  0
   24.7346   73.5012   -6.0894 H   0  0  0  0  0  0  0  0  0  0  0  0
   25.1903   75.2905   -5.6718 H   0  0  0  0  0  0  0  0  0  0  0  0
   22.7858   71.2648   -4.4743 H   0  0  0  0  0  0  0  0  0  0  0  0
   21.4696   77.6142   -2.9690 O   0  0  0  0  0  0  0  0  0  0  0  0
   22.7814   77.3246   -3.4157 C   0  0  0  0  0  0  0  0  0  0  0  0
   21.3019   78.5660   -3.0558 H   0  0  0  0  0  0  0  0  0  0  0  0
 25 28  1  0
 25 24  1  0
 25 26  1  1
 25 27  2  0
  1  4  1  0
  1 24  1  0
  1  2  1  6
  1  3  2  0
  6 11  1  0
  6 12  1  0
 29 36  1  0
 29 37  1  0
  9  7  1  6
  7 13  1  0
 10  8  1  1
  8 14  1  0
 37 28  1  1
  4  5  1  0
 33 30  1  6
 30 38  1  0
 34 31  1  1
 31 39  1  0
 35 32  1  1
 32 40  1  0
 41 42  1  0
 41 43  1  0
 15 19  2  0
 16 22  2  0
 12 17  1  6
 17 19  1  0
 17 20  1  0
 18 19  1  0
 18 22  1  0
 18 23  1  0
  9 10  1  0
  9 11  1  0
 10 12  1  0
 11  5  1  6
 33 34  1  0
 33 35  1  0
 34 36  1  0
 35 37  1  0
 36 42  1  6
 20 21  2  0
 21 22  1  0
M  CHG  2   2  -1  26  -1
M  END
>  <COMPND>  (164) 
    8629 

>  <AUTHOR>  (164) 
    GENERATED BY OPEN BABEL 3.1.1

>  <MASTER>  (164) 
        0    0    0    0    0    0    0    0   58    0   58    0

>  <minimizedAffinity>  (164) 
-7.66130

>  <CNNscore>  (164) 
0.5520935059

>  <CNNaffinity>  (164) 
4.4778776169

>  <CNN_VS>  (164) 
2.4722070694

>  <CNNaffinity_variance>  (164) 
0.1632566750

$$$$
165
     RDKit          3D

 43 45  0  0  0  0  0  0  0  0999 V2000
   21.3505   71.2401   -1.6947 P   0  0  2  0  0  0  0  0  0  0  0  0
   22.6722   70.7766   -0.8850 O   0  0  0  0  0  0  0  0  0  0  0  0
   20.5775   72.3581   -1.0591 O   0  0  0  0  0  0  0  0  0  0  0  0
   20.5331   69.8629   -1.9251 O   0  0  0  0  0  0  0  0  0  0  0  0
   19.8987   69.6541   -3.1747 C   0  0  0  0  0  0  0  0  0  0  0  0
   17.8538   70.5227   -4.0901 O   0  0  0  0  0  0  0  0  0  0  0  0
   16.4457   68.5386   -2.3376 O   0  0  0  0  0  0  0  0  0  0  0  0
   16.3858   67.3236   -4.7783 O   0  0  0  0  0  0  0  0  0  0  0  0
   17.6847   68.4087   -3.0328 C   0  0  1  0  0  0  0  0  0  0  0  0
   17.4390   68.2286   -4.5163 C   0  0  2  0  0  0  0  0  0  0  0  0
   18.3911   69.7579   -2.9888 C   0  0  1  0  0  0  0  0  0  0  0  0
   17.1148   69.6461   -4.9563 C   0  0  2  0  0  0  0  0  0  0  0  0
   15.9765   67.6891   -2.3519 H   0  0  0  0  0  0  0  0  0  0  0  0
   16.6403   66.4362   -4.4806 H   0  0  0  0  0  0  0  0  0  0  0  0
   15.7450   71.3899   -6.7058 O   0  0  0  0  0  0  0  0  0  0  0  0
   18.6861   70.5394  -10.1507 O   0  0  0  0  0  0  0  0  0  0  0  0
   17.5010   69.8995   -6.3157 N   0  0  0  0  0  0  0  0  0  0  0  0
   17.2107   70.9651   -8.4196 N   0  0  0  0  0  0  0  0  0  0  0  0
   16.7444   70.7922   -7.1102 C   0  0  0  0  0  0  0  0  0  0  0  0
   18.6188   69.2663   -6.8480 C   0  0  0  0  0  0  0  0  0  0  0  0
   19.0495   69.4410   -8.0991 C   0  0  0  0  0  0  0  0  0  0  0  0
   18.3153   70.3576   -8.9952 C   0  0  0  0  0  0  0  0  0  0  0  0
   16.6991   71.5823   -8.9917 H   0  0  0  0  0  0  0  0  0  0  0  0
   21.9251   71.5725   -3.1686 O   0  0  0  0  0  0  0  0  0  0  0  0
   22.5636   72.9264   -3.7786 P   0  0  2  0  0  0  0  0  0  0  0  0
   23.7433   72.3793   -4.7412 O   0  0  0  0  0  0  0  0  0  0  0  0
   23.0175   73.9137   -2.7427 O   0  0  0  0  0  0  0  0  0  0  0  0
   21.4392   73.4884   -4.7909 O   0  0  0  0  0  0  0  0  0  0  0  0
   19.2169   73.4530   -3.9682 O   0  0  0  0  0  0  0  0  0  0  0  0
   18.4263   74.0321   -7.9795 O   0  0  0  0  0  0  0  0  0  0  0  0
   18.0453   76.1977   -6.1321 O   0  0  0  0  0  0  0  0  0  0  0  0
   20.5804   72.2753   -7.1713 O   0  0  0  0  0  0  0  0  0  0  0  0
   19.1624   74.1788   -6.7621 C   0  0  1  0  0  0  0  0  0  0  0  0
   18.2527   74.8468   -5.7291 C   0  0  1  0  0  0  0  0  0  0  0  0
   19.6048   72.7996   -6.2769 C   0  0  2  0  0  0  0  0  0  0  0  0
   18.8759   74.7969   -4.3276 C   0  0  1  0  0  0  0  0  0  0  0  0
   20.1645   72.8540   -4.8543 C   0  0  1  0  0  0  0  0  0  0  0  0
   18.1428   74.9043   -8.2932 H   0  0  0  0  0  0  0  0  0  0  0  0
   17.6519   76.2152   -7.0187 H   0  0  0  0  0  0  0  0  0  0  0  0
   20.2138   72.2457   -8.0683 H   0  0  0  0  0  0  0  0  0  0  0  0
   16.5965   75.2304   -3.7572 O   0  0  0  0  0  0  0  0  0  0  0  0
   17.9182   75.3156   -3.2571 C   0  0  0  0  0  0  0  0  0  0  0  0
   15.9759   75.5569   -3.0863 H   0  0  0  0  0  0  0  0  0  0  0  0
 25 28  1  0
 25 24  1  0
 25 26  1  6
 25 27  2  0
  1  4  1  0
  1 24  1  0
  1  2  1  1
  1  3  2  0
  6 11  1  0
  6 12  1  0
 29 36  1  0
 29 37  1  0
  9  7  1  1
  7 13  1  0
 10  8  1  1
  8 14  1  0
 37 28  1  6
  4  5  1  0
 33 30  1  6
 30 38  1  0
 34 31  1  6
 31 39  1  0
 35 32  1  6
 32 40  1  0
 41 42  1  0
 41 43  1  0
 15 19  2  0
 16 22  2  0
 12 17  1  6
 17 19  1  0
 17 20  1  0
 18 19  1  0
 18 22  1  0
 18 23  1  0
  9 10  1  0
  9 11  1  0
 10 12  1  0
 11  5  1  6
 33 34  1  0
 33 35  1  0
 34 36  1  0
 35 37  1  0
 36 42  1  1
 20 21  2  0
 21 22  1  0
M  CHG  2   2  -1  26  -1
M  END
>  <COMPND>  (165) 
    8629 

>  <AUTHOR>  (165) 
    GENERATED BY OPEN BABEL 3.1.1

>  <MASTER>  (165) 
        0    0    0    0    0    0    0    0   58    0   58    0

>  <minimizedAffinity>  (165) 
-7.27880

>  <CNNscore>  (165) 
0.5502998829

>  <CNNaffinity>  (165) 
4.2943220139

>  <CNN_VS>  (165) 
2.3631649017

>  <CNNaffinity_variance>  (165) 
0.4401255250

$$$$
166
     RDKit          3D

 43 45  0  0  0  0  0  0  0  0999 V2000
   20.6269   70.6762   -1.0639 P   0  0  2  0  0  0  0  0  0  0  0  0
   22.1715   71.0417   -0.7507 O   0  0  0  0  0  0  0  0  0  0  0  0
   20.2179   69.2811   -0.6925 O   0  0  0  0  0  0  0  0  0  0  0  0
   20.4426   71.0711   -2.6221 O   0  0  0  0  0  0  0  0  0  0  0  0
   19.8688   70.1166   -3.4982 C   0  0  0  0  0  0  0  0  0  0  0  0
   17.8141   70.8216   -4.5254 O   0  0  0  0  0  0  0  0  0  0  0  0
   16.4465   68.9044   -2.6695 O   0  0  0  0  0  0  0  0  0  0  0  0
   16.5103   67.5167   -5.0162 O   0  0  0  0  0  0  0  0  0  0  0  0
   17.7093   68.7829   -3.3219 C   0  0  1  0  0  0  0  0  0  0  0  0
   17.5142   68.4861   -4.7942 C   0  0  2  0  0  0  0  0  0  0  0  0
   18.3534   70.1632   -3.3584 C   0  0  1  0  0  0  0  0  0  0  0  0
   17.1398   69.8520   -5.3440 C   0  0  2  0  0  0  0  0  0  0  0  0
   16.0162   68.0352   -2.6339 H   0  0  0  0  0  0  0  0  0  0  0  0
   16.7954   66.6657   -4.6486 H   0  0  0  0  0  0  0  0  0  0  0  0
   15.7331   71.3841   -7.2549 O   0  0  0  0  0  0  0  0  0  0  0  0
   18.8176   70.4450  -10.5481 O   0  0  0  0  0  0  0  0  0  0  0  0
   17.5529   70.0253   -6.7081 N   0  0  0  0  0  0  0  0  0  0  0  0
   17.2702   70.9154   -8.8931 N   0  0  0  0  0  0  0  0  0  0  0  0
   16.7744   70.8140   -7.5869 C   0  0  0  0  0  0  0  0  0  0  0  0
   18.7182   69.4170   -7.1619 C   0  0  0  0  0  0  0  0  0  0  0  0
   19.1766   69.5225   -8.4109 C   0  0  0  0  0  0  0  0  0  0  0  0
   18.4223   70.3287   -9.3922 C   0  0  0  0  0  0  0  0  0  0  0  0
   16.7442   71.4596   -9.5231 H   0  0  0  0  0  0  0  0  0  0  0  0
   19.8142   71.8428   -0.2949 O   0  0  0  0  0  0  0  0  0  0  0  0
   18.9281   73.0701   -0.8619 P   0  0  2  0  0  0  0  0  0  0  0  0
   19.0533   74.1869    0.3020 O   0  0  0  0  0  0  0  0  0  0  0  0
   17.5168   72.6988   -1.2145 O   0  0  0  0  0  0  0  0  0  0  0  0
   19.7905   73.6633   -2.0904 O   0  0  0  0  0  0  0  0  0  0  0  0
   22.1235   74.0199   -2.3060 O   0  0  0  0  0  0  0  0  0  0  0  0
   20.7572   77.3418   -4.3430 O   0  0  0  0  0  0  0  0  0  0  0  0
   21.9360   75.1682   -5.8039 O   0  0  0  0  0  0  0  0  0  0  0  0
   19.3751   76.4358   -1.9663 O   0  0  0  0  0  0  0  0  0  0  0  0
   20.7317   75.9809   -3.9039 C   0  0  1  0  0  0  0  0  0  0  0  0
   22.0122   75.2971   -4.3869 C   0  0  1  0  0  0  0  0  0  0  0  0
   20.6480   75.9500   -2.3790 C   0  0  2  0  0  0  0  0  0  0  0  0
   22.1847   73.9192   -3.7335 C   0  0  1  0  0  0  0  0  0  0  0  0
   20.8818   74.5419   -1.8289 C   0  0  1  0  0  0  0  0  0  0  0  0
   20.8098   77.3685   -5.3105 H   0  0  0  0  0  0  0  0  0  0  0  0
   21.8267   76.0452   -6.2041 H   0  0  0  0  0  0  0  0  0  0  0  0
   19.2393   77.3279   -2.3206 H   0  0  0  0  0  0  0  0  0  0  0  0
   23.4336   72.6930   -5.3601 O   0  0  0  0  0  0  0  0  0  0  0  0
   23.5313   73.2871   -4.0788 C   0  0  0  0  0  0  0  0  0  0  0  0
   24.2835   72.2869   -5.5932 H   0  0  0  0  0  0  0  0  0  0  0  0
 25 28  1  0
 25 24  1  0
 25 26  1  1
 25 27  2  0
  1  4  1  0
  1 24  1  0
  1  2  1  1
  1  3  2  0
  6 11  1  0
  6 12  1  0
 29 36  1  0
 29 37  1  0
  9  7  1  1
  7 13  1  0
 10  8  1  1
  8 14  1  0
 37 28  1  6
  4  5  1  0
 33 30  1  1
 30 38  1  0
 34 31  1  6
 31 39  1  0
 35 32  1  6
 32 40  1  0
 41 42  1  0
 41 43  1  0
 15 19  2  0
 16 22  2  0
 12 17  1  6
 17 19  1  0
 17 20  1  0
 18 19  1  0
 18 22  1  0
 18 23  1  0
  9 10  1  0
  9 11  1  0
 10 12  1  0
 11  5  1  6
 33 34  1  0
 33 35  1  0
 34 36  1  0
 35 37  1  0
 36 42  1  1
 20 21  2  0
 21 22  1  0
M  CHG  2   2  -1  26  -1
M  END
>  <COMPND>  (166) 
    8629 

>  <AUTHOR>  (166) 
    GENERATED BY OPEN BABEL 3.1.1

>  <MASTER>  (166) 
        0    0    0    0    0    0    0    0   58    0   58    0

>  <minimizedAffinity>  (166) 
-6.97826

>  <CNNscore>  (166) 
0.5443735719

>  <CNNaffinity>  (166) 
4.4611601830

>  <CNN_VS>  (166) 
2.4285376072

>  <CNNaffinity_variance>  (166) 
0.1375534087

$$$$
167
     RDKit          3D

 43 45  0  0  0  0  0  0  0  0999 V2000
   19.3203   73.9982   -6.6853 P   0  0  2  0  0  0  0  0  0  0  0  0
   18.6340   75.3986   -7.1157 O   0  0  0  0  0  0  0  0  0  0  0  0
   20.8194   73.9817   -6.7472 O   0  0  0  0  0  0  0  0  0  0  0  0
   18.5670   72.8984   -7.6024 O   0  0  0  0  0  0  0  0  0  0  0  0
   18.9628   71.5422   -7.4939 C   0  0  0  0  0  0  0  0  0  0  0  0
   17.9169   69.6348   -6.4734 O   0  0  0  0  0  0  0  0  0  0  0  0
   15.3353   70.7023   -7.5627 O   0  0  0  0  0  0  0  0  0  0  0  0
   15.2403   71.4712   -4.9481 O   0  0  0  0  0  0  0  0  0  0  0  0
   16.4609   71.4134   -7.0500 C   0  0  1  0  0  0  0  0  0  0  0  0
   16.5116   71.2997   -5.5407 C   0  0  2  0  0  0  0  0  0  0  0  0
   17.7197   70.6635   -7.4679 C   0  0  1  0  0  0  0  0  0  0  0  0
   17.0617   69.8966   -5.3486 C   0  0  2  0  0  0  0  0  0  0  0  0
   14.5194   71.1625   -7.3089 H   0  0  0  0  0  0  0  0  0  0  0  0
   14.9336   72.3791   -5.0975 H   0  0  0  0  0  0  0  0  0  0  0  0
   15.9419   69.6649   -2.7660 O   0  0  0  0  0  0  0  0  0  0  0  0
   20.0969   69.4146   -0.7874 O   0  0  0  0  0  0  0  0  0  0  0  0
   17.8276   69.7691   -4.1409 N   0  0  0  0  0  0  0  0  0  0  0  0
   18.0116   69.5403   -1.7829 N   0  0  0  0  0  0  0  0  0  0  0  0
   17.1679   69.6601   -2.8946 C   0  0  0  0  0  0  0  0  0  0  0  0
   19.2169   69.7529   -4.1998 C   0  0  0  0  0  0  0  0  0  0  0  0
   20.0071   69.6393   -3.1303 C   0  0  0  0  0  0  0  0  0  0  0  0
   19.3974   69.5204   -1.7901 C   0  0  0  0  0  0  0  0  0  0  0  0
   17.5743   69.4633   -0.9039 H   0  0  0  0  0  0  0  0  0  0  0  0
   18.7047   73.7285   -5.2152 O   0  0  0  0  0  0  0  0  0  0  0  0
   19.3574   73.8892   -3.7451 P   0  0  2  0  0  0  0  0  0  0  0  0
   18.3199   73.0965   -2.7898 O   0  0  0  0  0  0  0  0  0  0  0  0
   19.6122   75.3113   -3.3371 O   0  0  0  0  0  0  0  0  0  0  0  0
   20.6745   72.9568   -3.7788 O   0  0  0  0  0  0  0  0  0  0  0  0
   21.9712   73.6714   -1.9283 O   0  0  0  0  0  0  0  0  0  0  0  0
   24.4405   70.6825   -3.3496 O   0  0  0  0  0  0  0  0  0  0  0  0
   22.9668   70.2684   -0.9196 O   0  0  0  0  0  0  0  0  0  0  0  0
   23.0217   72.3890   -5.2082 O   0  0  0  0  0  0  0  0  0  0  0  0
   23.1888   71.3111   -3.0607 C   0  0  1  0  0  0  0  0  0  0  0  0
   23.1038   71.5388   -1.5502 C   0  0  1  0  0  0  0  0  0  0  0  0
   23.1130   72.6401   -3.8099 C   0  0  2  0  0  0  0  0  0  0  0  0
   21.9172   72.4437   -1.1923 C   0  0  1  0  0  0  0  0  0  0  0  0
   21.9252   73.4841   -3.3442 C   0  0  1  0  0  0  0  0  0  0  0  0
   24.4948   69.8378   -2.8773 H   0  0  0  0  0  0  0  0  0  0  0  0
   23.7222   69.7066   -1.1541 H   0  0  0  0  0  0  0  0  0  0  0  0
   23.7794   71.8542   -5.4907 H   0  0  0  0  0  0  0  0  0  0  0  0
   23.0705   72.2812    0.8939 O   0  0  0  0  0  0  0  0  0  0  0  0
   21.9055   72.8123    0.2896 C   0  0  0  0  0  0  0  0  0  0  0  0
   23.0768   72.5083    1.8374 H   0  0  0  0  0  0  0  0  0  0  0  0
 25 28  1  0
 25 24  1  0
 25 26  1  1
 25 27  2  0
  1  4  1  0
  1 24  1  0
  1  2  1  6
  1  3  2  0
  6 11  1  0
  6 12  1  0
 29 36  1  0
 29 37  1  0
  9  7  1  6
  7 13  1  0
 10  8  1  1
  8 14  1  0
 37 28  1  1
  4  5  1  0
 33 30  1  1
 30 38  1  0
 34 31  1  1
 31 39  1  0
 35 32  1  6
 32 40  1  0
 41 42  1  0
 41 43  1  0
 15 19  2  0
 16 22  2  0
 12 17  1  1
 17 19  1  0
 17 20  1  0
 18 19  1  0
 18 22  1  0
 18 23  1  0
  9 10  1  0
  9 11  1  0
 10 12  1  0
 11  5  1  1
 33 34  1  0
 33 35  1  0
 34 36  1  0
 35 37  1  0
 36 42  1  1
 20 21  2  0
 21 22  1  0
M  CHG  2   2  -1  26  -1
M  END
>  <COMPND>  (167) 
    8629 

>  <AUTHOR>  (167) 
    GENERATED BY OPEN BABEL 3.1.1

>  <MASTER>  (167) 
        0    0    0    0    0    0    0    0   58    0   58    0

>  <minimizedAffinity>  (167) 
-7.63505

>  <CNNscore>  (167) 
0.5255026221

>  <CNNaffinity>  (167) 
4.1719880104

>  <CNN_VS>  (167) 
2.1923906803

>  <CNNaffinity_variance>  (167) 
0.7118881345

$$$$
168
     RDKit          3D

 43 45  0  0  0  0  0  0  0  0999 V2000
   15.8017   73.3682   -5.8671 P   0  0  2  0  0  0  0  0  0  0  0  0
   14.2584   73.2183   -5.4054 O   0  0  0  0  0  0  0  0  0  0  0  0
   16.0760   74.5108   -6.8001 O   0  0  0  0  0  0  0  0  0  0  0  0
   16.1847   71.8983   -6.4246 O   0  0  0  0  0  0  0  0  0  0  0  0
   16.6531   71.7814   -7.7568 C   0  0  0  0  0  0  0  0  0  0  0  0
   18.6146   71.4185   -6.4171 O   0  0  0  0  0  0  0  0  0  0  0  0
   20.1007   71.1304   -9.0054 O   0  0  0  0  0  0  0  0  0  0  0  0
   19.7536   68.5398   -8.2277 O   0  0  0  0  0  0  0  0  0  0  0  0
   18.7748   70.7198   -8.6758 C   0  0  1  0  0  0  0  0  0  0  0  0
   18.8095   69.4943   -7.7868 C   0  0  2  0  0  0  0  0  0  0  0  0
   18.1756   71.7691   -7.7478 C   0  0  1  0  0  0  0  0  0  0  0  0
   19.1703   70.0935   -6.4381 C   0  0  2  0  0  0  0  0  0  0  0  0
   20.5039   70.4759   -9.5978 H   0  0  0  0  0  0  0  0  0  0  0  0
   19.4798   68.1880   -9.0892 H   0  0  0  0  0  0  0  0  0  0  0  0
   20.4678   69.7259   -3.9563 O   0  0  0  0  0  0  0  0  0  0  0  0
   16.9902   67.1914   -2.3060 O   0  0  0  0  0  0  0  0  0  0  0  0
   18.6266   69.3424   -5.3419 N   0  0  0  0  0  0  0  0  0  0  0  0
   18.7351   68.4644   -3.1366 N   0  0  0  0  0  0  0  0  0  0  0  0
   19.3596   69.2178   -4.1388 C   0  0  0  0  0  0  0  0  0  0  0  0
   17.3797   68.7393   -5.4660 C   0  0  0  0  0  0  0  0  0  0  0  0
   16.7987   68.0231   -4.5013 C   0  0  0  0  0  0  0  0  0  0  0  0
   17.4979   67.8443   -3.2125 C   0  0  0  0  0  0  0  0  0  0  0  0
   19.2273   68.3636   -2.2896 H   0  0  0  0  0  0  0  0  0  0  0  0
   16.5962   73.4420   -4.4613 O   0  0  0  0  0  0  0  0  0  0  0  0
   16.2219   72.8639   -2.9988 P   0  0  2  0  0  0  0  0  0  0  0  0
   15.9762   71.2887   -3.2742 O   0  0  0  0  0  0  0  0  0  0  0  0
   15.0705   73.5638   -2.3367 O   0  0  0  0  0  0  0  0  0  0  0  0
   17.6058   72.9219   -2.1703 O   0  0  0  0  0  0  0  0  0  0  0  0
   18.7106   71.3617   -0.7696 O   0  0  0  0  0  0  0  0  0  0  0  0
   19.3816   74.8007    1.4153 O   0  0  0  0  0  0  0  0  0  0  0  0
   21.5534   73.5847   -0.0174 O   0  0  0  0  0  0  0  0  0  0  0  0
   16.8414   74.4086    0.0837 O   0  0  0  0  0  0  0  0  0  0  0  0
   19.2150   74.0246    0.2257 C   0  0  1  0  0  0  0  0  0  0  0  0
   20.2990   72.9452    0.2014 C   0  0  1  0  0  0  0  0  0  0  0  0
   17.8252   73.3907    0.2338 C   0  0  2  0  0  0  0  0  0  0  0  0
   20.0270   71.9114   -0.8996 C   0  0  1  0  0  0  0  0  0  0  0  0
   17.6761   72.3423   -0.8701 C   0  0  1  0  0  0  0  0  0  0  0  0
   20.2619   75.2064    1.4161 H   0  0  0  0  0  0  0  0  0  0  0  0
   21.7128   74.2353    0.6843 H   0  0  0  0  0  0  0  0  0  0  0  0
   16.9462   75.0658    0.7887 H   0  0  0  0  0  0  0  0  0  0  0  0
   20.2653   69.5366   -0.7884 O   0  0  0  0  0  0  0  0  0  0  0  0
   21.0068   70.7416   -0.8404 C   0  0  0  0  0  0  0  0  0  0  0  0
   20.8760   68.7833   -0.7508 H   0  0  0  0  0  0  0  0  0  0  0  0
 25 28  1  0
 25 24  1  0
 25 26  1  6
 25 27  2  0
  1  4  1  0
  1 24  1  0
  1  2  1  1
  1  3  2  0
  6 11  1  0
  6 12  1  0
 29 36  1  0
 29 37  1  0
  9  7  1  1
  7 13  1  0
 10  8  1  6
  8 14  1  0
 37 28  1  6
  4  5  1  0
 33 30  1  1
 30 38  1  0
 34 31  1  6
 31 39  1  0
 35 32  1  6
 32 40  1  0
 41 42  1  0
 41 43  1  0
 15 19  2  0
 16 22  2  0
 12 17  1  1
 17 19  1  0
 17 20  1  0
 18 19  1  0
 18 22  1  0
 18 23  1  0
  9 10  1  0
  9 11  1  0
 10 12  1  0
 11  5  1  1
 33 34  1  0
 33 35  1  0
 34 36  1  0
 35 37  1  0
 36 42  1  1
 20 21  2  0
 21 22  1  0
M  CHG  2   2  -1  26  -1
M  END
>  <COMPND>  (168) 
    8629 

>  <AUTHOR>  (168) 
    GENERATED BY OPEN BABEL 3.1.1

>  <MASTER>  (168) 
        0    0    0    0    0    0    0    0   58    0   58    0

>  <minimizedAffinity>  (168) 
-7.02936

>  <CNNscore>  (168) 
0.5080019236

>  <CNNaffinity>  (168) 
4.2848024368

>  <CNN_VS>  (168) 
2.1766879559

>  <CNNaffinity_variance>  (168) 
0.5146545172

$$$$
169
     RDKit          3D

 43 45  0  0  0  0  0  0  0  0999 V2000
   21.7640   71.4970   -2.1166 P   0  0  2  0  0  0  0  0  0  0  0  0
   23.2725   71.9219   -2.5183 O   0  0  0  0  0  0  0  0  0  0  0  0
   21.6614   70.5232   -0.9796 O   0  0  0  0  0  0  0  0  0  0  0  0
   21.1106   71.0146   -3.5160 O   0  0  0  0  0  0  0  0  0  0  0  0
   20.4286   69.7730   -3.5513 C   0  0  0  0  0  0  0  0  0  0  0  0
   18.3816   70.7473   -4.3476 O   0  0  0  0  0  0  0  0  0  0  0  0
   16.9893   68.9885   -2.3578 O   0  0  0  0  0  0  0  0  0  0  0  0
   16.6236   67.6412   -4.7003 O   0  0  0  0  0  0  0  0  0  0  0  0
   18.1490   68.7193   -3.1439 C   0  0  1  0  0  0  0  0  0  0  0  0
   17.7605   68.4727   -4.5868 C   0  0  2  0  0  0  0  0  0  0  0  0
   18.9553   70.0079   -3.2474 C   0  0  1  0  0  0  0  0  0  0  0  0
   17.5055   69.8834   -5.0899 C   0  0  2  0  0  0  0  0  0  0  0  0
   16.4585   68.1800   -2.2774 H   0  0  0  0  0  0  0  0  0  0  0  0
   16.8363   66.7553   -4.3676 H   0  0  0  0  0  0  0  0  0  0  0  0
   15.8960   71.3309   -6.9043 O   0  0  0  0  0  0  0  0  0  0  0  0
   18.6864   70.3568  -10.4407 O   0  0  0  0  0  0  0  0  0  0  0  0
   17.7880   70.0248   -6.4905 N   0  0  0  0  0  0  0  0  0  0  0  0
   17.2868   70.8448   -8.6637 N   0  0  0  0  0  0  0  0  0  0  0  0
   16.9151   70.7720   -7.3151 C   0  0  0  0  0  0  0  0  0  0  0  0
   18.9202   69.4266   -7.0329 C   0  0  0  0  0  0  0  0  0  0  0  0
   19.2599   69.5044   -8.3212 C   0  0  0  0  0  0  0  0  0  0  0  0
   18.4012   70.2666   -9.2506 C   0  0  0  0  0  0  0  0  0  0  0  0
   16.6934   71.3599   -9.2572 H   0  0  0  0  0  0  0  0  0  0  0  0
   21.0442   72.9197   -1.8509 O   0  0  0  0  0  0  0  0  0  0  0  0
   20.4569   74.0206   -2.8785 P   0  0  2  0  0  0  0  0  0  0  0  0
   20.6032   75.4081   -2.0594 O   0  0  0  0  0  0  0  0  0  0  0  0
   19.0655   73.7307   -3.3619 O   0  0  0  0  0  0  0  0  0  0  0  0
   21.5645   74.1192   -4.0484 O   0  0  0  0  0  0  0  0  0  0  0  0
   22.0518   75.7145   -5.7318 O   0  0  0  0  0  0  0  0  0  0  0  0
   22.4493   72.2612   -7.9606 O   0  0  0  0  0  0  0  0  0  0  0  0
   24.7912   73.7538   -7.2284 O   0  0  0  0  0  0  0  0  0  0  0  0
   20.3616   72.4596   -5.9652 O   0  0  0  0  0  0  0  0  0  0  0  0
   22.5418   73.0717   -6.7858 C   0  0  1  0  0  0  0  0  0  0  0  0
   23.4641   74.2539   -7.0902 C   0  0  1  0  0  0  0  0  0  0  0  0
   21.1458   73.5625   -6.4069 C   0  0  2  0  0  0  0  0  0  0  0  0
   23.4030   75.3057   -5.9744 C   0  0  1  0  0  0  0  0  0  0  0  0
   21.2011   74.6413   -5.3237 C   0  0  1  0  0  0  0  0  0  0  0  0
   23.3324   71.9459   -8.2063 H   0  0  0  0  0  0  0  0  0  0  0  0
   24.8159   73.0902   -7.9357 H   0  0  0  0  0  0  0  0  0  0  0  0
   20.3341   71.7838   -6.6597 H   0  0  0  0  0  0  0  0  0  0  0  0
   24.2403   76.6801   -7.7405 O   0  0  0  0  0  0  0  0  0  0  0  0
   24.1925   76.5636   -6.3304 C   0  0  0  0  0  0  0  0  0  0  0  0
   24.7396   77.4765   -7.9817 H   0  0  0  0  0  0  0  0  0  0  0  0
 25 28  1  0
 25 24  1  0
 25 26  1  1
 25 27  2  0
  1  4  1  0
  1 24  1  0
  1  2  1  6
  1  3  2  0
  6 11  1  0
  6 12  1  0
 29 36  1  0
 29 37  1  0
  9  7  1  1
  7 13  1  0
 10  8  1  1
  8 14  1  0
 37 28  1  1
  4  5  1  0
 33 30  1  6
 30 38  1  0
 34 31  1  1
 31 39  1  0
 35 32  1  1
 32 40  1  0
 41 42  1  0
 41 43  1  0
 15 19  2  0
 16 22  2  0
 12 17  1  6
 17 19  1  0
 17 20  1  0
 18 19  1  0
 18 22  1  0
 18 23  1  0
  9 10  1  0
  9 11  1  0
 10 12  1  0
 11  5  1  6
 33 34  1  0
 33 35  1  0
 34 36  1  0
 35 37  1  0
 36 42  1  6
 20 21  2  0
 21 22  1  0
M  CHG  2   2  -1  26  -1
M  END
>  <COMPND>  (169) 
    8629 

>  <AUTHOR>  (169) 
    GENERATED BY OPEN BABEL 3.1.1

>  <MASTER>  (169) 
        0    0    0    0    0    0    0    0   58    0   58    0

>  <minimizedAffinity>  (169) 
-7.57036

>  <CNNscore>  (169) 
0.4596350491

>  <CNNaffinity>  (169) 
4.2344770432

>  <CNN_VS>  (169) 
1.9463140965

>  <CNNaffinity_variance>  (169) 
0.5644322038

$$$$
170
     RDKit          3D

 43 45  0  0  0  0  0  0  0  0999 V2000
   18.4608   69.3780   -2.4450 P   0  0  2  0  0  0  0  0  0  0  0  0
   17.3005   68.2956   -2.1293 O   0  0  0  0  0  0  0  0  0  0  0  0
   19.7819   68.7916   -2.8479 O   0  0  0  0  0  0  0  0  0  0  0  0
   18.4819   70.3196   -1.1293 O   0  0  0  0  0  0  0  0  0  0  0  0
   17.7845   71.5524   -1.1689 C   0  0  0  0  0  0  0  0  0  0  0  0
   19.7169   72.0717    0.1615 O   0  0  0  0  0  0  0  0  0  0  0  0
   18.4563   74.7554    0.6081 O   0  0  0  0  0  0  0  0  0  0  0  0
   20.3134   75.2841   -1.3176 O   0  0  0  0  0  0  0  0  0  0  0  0
   18.4397   73.9337   -0.5580 C   0  0  1  0  0  0  0  0  0  0  0  0
   19.7865   73.9747   -1.2494 C   0  0  2  0  0  0  0  0  0  0  0  0
   18.3578   72.4807   -0.1070 C   0  0  1  0  0  0  0  0  0  0  0  0
   20.6189   73.0546   -0.3727 C   0  0  2  0  0  0  0  0  0  0  0  0
   18.5079   75.6883    0.3454 H   0  0  0  0  0  0  0  0  0  0  0  0
   19.7490   75.8306   -1.8864 H   0  0  0  0  0  0  0  0  0  0  0  0
   23.1520   72.3881    0.6842 O   0  0  0  0  0  0  0  0  0  0  0  0
   24.5140   70.4910   -3.2891 O   0  0  0  0  0  0  0  0  0  0  0  0
   21.6545   72.3859   -1.1087 N   0  0  0  0  0  0  0  0  0  0  0  0
   23.8280   71.4438   -1.2950 N   0  0  0  0  0  0  0  0  0  0  0  0
   22.8910   72.0982   -0.4852 C   0  0  0  0  0  0  0  0  0  0  0  0
   21.4388   72.0222   -2.4335 C   0  0  0  0  0  0  0  0  0  0  0  0
   22.3432   71.3999   -3.1925 C   0  0  0  0  0  0  0  0  0  0  0  0
   23.6613   71.0629   -2.6171 C   0  0  0  0  0  0  0  0  0  0  0  0
   24.6969   71.2336   -0.8820 H   0  0  0  0  0  0  0  0  0  0  0  0
   17.7780   70.3279   -3.5606 O   0  0  0  0  0  0  0  0  0  0  0  0
   16.4415   70.1311   -4.4483 P   0  0  2  0  0  0  0  0  0  0  0  0
   15.2676   70.6757   -3.4772 O   0  0  0  0  0  0  0  0  0  0  0  0
   16.2337   68.7298   -4.9453 O   0  0  0  0  0  0  0  0  0  0  0  0
   16.5566   71.2434   -5.6121 O   0  0  0  0  0  0  0  0  0  0  0  0
   18.7219   70.6872   -6.3987 O   0  0  0  0  0  0  0  0  0  0  0  0
   17.5398   73.2086   -9.4476 O   0  0  0  0  0  0  0  0  0  0  0  0
   17.6970   70.3813   -9.9264 O   0  0  0  0  0  0  0  0  0  0  0  0
   16.8142   73.8126   -6.7112 O   0  0  0  0  0  0  0  0  0  0  0  0
   17.3589   72.2180   -8.4321 C   0  0  1  0  0  0  0  0  0  0  0  0
   18.2415   71.0155   -8.7725 C   0  0  1  0  0  0  0  0  0  0  0  0
   17.7548   72.8102   -7.0809 C   0  0  2  0  0  0  0  0  0  0  0  0
   18.3072   70.0271   -7.6004 C   0  0  1  0  0  0  0  0  0  0  0  0
   17.8381   71.7352   -5.9957 C   0  0  1  0  0  0  0  0  0  0  0  0
   17.2897   72.8391  -10.3081 H   0  0  0  0  0  0  0  0  0  0  0  0
   17.6605   71.0163  -10.6590 H   0  0  0  0  0  0  0  0  0  0  0  0
   16.7709   74.4873   -7.4060 H   0  0  0  0  0  0  0  0  0  0  0  0
   20.3293   69.3915   -8.7032 O   0  0  0  0  0  0  0  0  0  0  0  0
   19.3054   68.9004   -7.8577 C   0  0  0  0  0  0  0  0  0  0  0  0
   20.9721   68.6852   -8.8753 H   0  0  0  0  0  0  0  0  0  0  0  0
 25 28  1  0
 25 24  1  0
 25 26  1  1
 25 27  2  0
  1  4  1  0
  1 24  1  0
  1  2  1  1
  1  3  2  0
  6 11  1  0
  6 12  1  0
 29 36  1  0
 29 37  1  0
  9  7  1  1
  7 13  1  0
 10  8  1  1
  8 14  1  0
 37 28  1  6
  4  5  1  0
 33 30  1  6
 30 38  1  0
 34 31  1  6
 31 39  1  0
 35 32  1  1
 32 40  1  0
 41 42  1  0
 41 43  1  0
 15 19  2  0
 16 22  2  0
 12 17  1  6
 17 19  1  0
 17 20  1  0
 18 19  1  0
 18 22  1  0
 18 23  1  0
  9 10  1  0
  9 11  1  0
 10 12  1  0
 11  5  1  6
 33 34  1  0
 33 35  1  0
 34 36  1  0
 35 37  1  0
 36 42  1  6
 20 21  2  0
 21 22  1  0
M  CHG  2   2  -1  26  -1
M  END
>  <COMPND>  (170) 
    8629 

>  <AUTHOR>  (170) 
    GENERATED BY OPEN BABEL 3.1.1

>  <MASTER>  (170) 
        0    0    0    0    0    0    0    0   58    0   58    0

>  <minimizedAffinity>  (170) 
-7.99048

>  <CNNscore>  (170) 
0.4517065585

>  <CNNaffinity>  (170) 
4.0965485573

>  <CNN_VS>  (170) 
1.8504378796

>  <CNNaffinity_variance>  (170) 
0.5706791878

$$$$
171
     RDKit          3D

 43 45  0  0  0  0  0  0  0  0999 V2000
   18.3007   69.1776   -3.8677 P   0  0  2  0  0  0  0  0  0  0  0  0
   19.8494   68.8198   -4.1697 O   0  0  0  0  0  0  0  0  0  0  0  0
   17.5802   68.1901   -2.9976 O   0  0  0  0  0  0  0  0  0  0  0  0
   17.6638   69.4164   -5.3358 O   0  0  0  0  0  0  0  0  0  0  0  0
   18.3478   70.2670   -6.2393 C   0  0  0  0  0  0  0  0  0  0  0  0
   16.3071   70.4756   -7.4906 O   0  0  0  0  0  0  0  0  0  0  0  0
   18.0382   70.5948   -9.9360 O   0  0  0  0  0  0  0  0  0  0  0  0
   17.4142   73.2168   -9.5211 O   0  0  0  0  0  0  0  0  0  0  0  0
   18.2788   71.1249   -8.6336 C   0  0  1  0  0  0  0  0  0  0  0  0
   17.4270   72.3554   -8.4011 C   0  0  2  0  0  0  0  0  0  0  0  0
   17.7078   70.1458   -7.6155 C   0  0  1  0  0  0  0  0  0  0  0  0
   16.0647   71.7463   -8.1164 C   0  0  2  0  0  0  0  0  0  0  0  0
   18.3945   71.2028  -10.6033 H   0  0  0  0  0  0  0  0  0  0  0  0
   18.3031   73.5788   -9.6610 H   0  0  0  0  0  0  0  0  0  0  0  0
   14.1104   73.5981   -8.9704 O   0  0  0  0  0  0  0  0  0  0  0  0
   13.0994   74.8067   -4.6394 O   0  0  0  0  0  0  0  0  0  0  0  0
   15.2755   72.5580   -7.2333 N   0  0  0  0  0  0  0  0  0  0  0  0
   13.6084   74.1983   -6.8132 N   0  0  0  0  0  0  0  0  0  0  0  0
   14.3217   73.4573   -7.7641 C   0  0  0  0  0  0  0  0  0  0  0  0
   15.4510   72.4575   -5.8575 C   0  0  0  0  0  0  0  0  0  0  0  0
   14.7638   73.1721   -4.9641 C   0  0  0  0  0  0  0  0  0  0  0  0
   13.7476   74.1349   -5.4358 C   0  0  0  0  0  0  0  0  0  0  0  0
   12.9387   74.8316   -7.1598 H   0  0  0  0  0  0  0  0  0  0  0  0
   18.3850   70.6734   -3.2606 O   0  0  0  0  0  0  0  0  0  0  0  0
   18.3645   71.2017   -1.7331 P   0  0  2  0  0  0  0  0  0  0  0  0
   18.7987   69.8955   -0.8828 O   0  0  0  0  0  0  0  0  0  0  0  0
   17.0590   71.8102   -1.3098 O   0  0  0  0  0  0  0  0  0  0  0  0
   19.6313   72.1962   -1.6278 O   0  0  0  0  0  0  0  0  0  0  0  0
   21.8132   71.2712   -1.6511 O   0  0  0  0  0  0  0  0  0  0  0  0
   22.6708   74.9423    0.0337 O   0  0  0  0  0  0  0  0  0  0  0  0
   23.4635   74.4048   -2.6738 O   0  0  0  0  0  0  0  0  0  0  0  0
   20.2313   73.5590    0.7509 O   0  0  0  0  0  0  0  0  0  0  0  0
   21.9836   74.0345   -0.8317 C   0  0  1  0  0  0  0  0  0  0  0  0
   23.0094   73.3991   -1.7723 C   0  0  1  0  0  0  0  0  0  0  0  0
   21.2939   72.9649    0.0131 C   0  0  2  0  0  0  0  0  0  0  0  0
   22.3976   72.2240   -2.5469 C   0  0  1  0  0  0  0  0  0  0  0  0
   20.7641   71.8183   -0.8498 C   0  0  1  0  0  0  0  0  0  0  0  0
   23.1105   75.6243   -0.4964 H   0  0  0  0  0  0  0  0  0  0  0  0
   23.8471   75.1412   -2.1720 H   0  0  0  0  0  0  0  0  0  0  0  0
   20.5796   74.2830    1.2933 H   0  0  0  0  0  0  0  0  0  0  0  0
   23.7005   72.2203   -4.5497 O   0  0  0  0  0  0  0  0  0  0  0  0
   23.4428   71.4772   -3.3726 C   0  0  0  0  0  0  0  0  0  0  0  0
   24.3642   71.7571   -5.0850 H   0  0  0  0  0  0  0  0  0  0  0  0
 25 28  1  0
 25 24  1  0
 25 26  1  1
 25 27  2  0
  1  4  1  0
  1 24  1  0
  1  2  1  6
  1  3  2  0
  6 11  1  0
  6 12  1  0
 29 36  1  0
 29 37  1  0
  9  7  1  6
  7 13  1  0
 10  8  1  6
  8 14  1  0
 37 28  1  6
  4  5  1  0
 33 30  1  1
 30 38  1  0
 34 31  1  6
 31 39  1  0
 35 32  1  6
 32 40  1  0
 41 42  1  0
 41 43  1  0
 15 19  2  0
 16 22  2  0
 12 17  1  1
 17 19  1  0
 17 20  1  0
 18 19  1  0
 18 22  1  0
 18 23  1  0
  9 10  1  0
  9 11  1  0
 10 12  1  0
 11  5  1  1
 33 34  1  0
 33 35  1  0
 34 36  1  0
 35 37  1  0
 36 42  1  1
 20 21  2  0
 21 22  1  0
M  CHG  2   2  -1  26  -1
M  END
>  <COMPND>  (171) 
    8629 

>  <AUTHOR>  (171) 
    GENERATED BY OPEN BABEL 3.1.1

>  <MASTER>  (171) 
        0    0    0    0    0    0    0    0   58    0   58    0

>  <minimizedAffinity>  (171) 
-7.86633

>  <CNNscore>  (171) 
0.4430415034

>  <CNNaffinity>  (171) 
4.2241921425

>  <CNN_VS>  (171) 
1.8714923859

>  <CNNaffinity_variance>  (171) 
0.1154861823

$$$$
172
     RDKit          3D

 43 45  0  0  0  0  0  0  0  0999 V2000
   22.0888   72.4631   -4.3109 P   0  0  2  0  0  0  0  0  0  0  0  0
   21.0941   72.3028   -5.5768 O   0  0  0  0  0  0  0  0  0  0  0  0
   23.5285   72.1474   -4.5922 O   0  0  0  0  0  0  0  0  0  0  0  0
   21.3886   71.5771   -3.1522 O   0  0  0  0  0  0  0  0  0  0  0  0
   20.7344   70.3758   -3.5220 C   0  0  0  0  0  0  0  0  0  0  0  0
   18.5321   71.0421   -4.2145 O   0  0  0  0  0  0  0  0  0  0  0  0
   17.5113   69.2997   -1.9980 O   0  0  0  0  0  0  0  0  0  0  0  0
   17.1405   67.7366   -4.2016 O   0  0  0  0  0  0  0  0  0  0  0  0
   18.6344   69.1034   -2.8556 C   0  0  1  0  0  0  0  0  0  0  0  0
   18.1740   68.6995   -4.2407 C   0  0  2  0  0  0  0  0  0  0  0  0
   19.2697   70.4636   -3.1156 C   0  0  1  0  0  0  0  0  0  0  0  0
   17.7147   70.0270   -4.8196 C   0  0  2  0  0  0  0  0  0  0  0  0
   17.0892   68.4447   -1.8174 H   0  0  0  0  0  0  0  0  0  0  0  0
   17.4822   66.9104   -3.8257 H   0  0  0  0  0  0  0  0  0  0  0  0
   15.9250   71.3316   -6.5725 O   0  0  0  0  0  0  0  0  0  0  0  0
   18.4295   70.1937  -10.2703 O   0  0  0  0  0  0  0  0  0  0  0  0
   17.8749   70.0876   -6.2451 N   0  0  0  0  0  0  0  0  0  0  0  0
   17.1736   70.7641   -8.4123 N   0  0  0  0  0  0  0  0  0  0  0  0
   16.9185   70.7671   -7.0350 C   0  0  0  0  0  0  0  0  0  0  0  0
   18.9710   69.4779   -6.8458 C   0  0  0  0  0  0  0  0  0  0  0  0
   19.1991   69.4830   -8.1608 C   0  0  0  0  0  0  0  0  0  0  0  0
   18.2477   70.1713   -9.0570 C   0  0  0  0  0  0  0  0  0  0  0  0
   16.5205   71.2311   -8.9825 H   0  0  0  0  0  0  0  0  0  0  0  0
   21.8154   73.9799   -3.8236 O   0  0  0  0  0  0  0  0  0  0  0  0
   21.4989   75.3241   -4.6638 P   0  0  2  0  0  0  0  0  0  0  0  0
   21.9974   76.5048   -3.6765 O   0  0  0  0  0  0  0  0  0  0  0  0
   20.0704   75.4501   -5.1080 O   0  0  0  0  0  0  0  0  0  0  0  0
   22.5752   75.3169   -5.8666 O   0  0  0  0  0  0  0  0  0  0  0  0
   21.4503   75.8628   -7.8798 O   0  0  0  0  0  0  0  0  0  0  0  0
   25.1948   75.0461   -9.4169 O   0  0  0  0  0  0  0  0  0  0  0  0
   24.2711   77.7630   -9.3015 O   0  0  0  0  0  0  0  0  0  0  0  0
   24.1435   73.4437   -7.2473 O   0  0  0  0  0  0  0  0  0  0  0  0
   24.2615   75.5291   -8.4468 C   0  0  1  0  0  0  0  0  0  0  0  0
   23.4257   76.6348   -9.0944 C   0  0  1  0  0  0  0  0  0  0  0  0
   23.3687   74.3748   -7.9951 C   0  0  2  0  0  0  0  0  0  0  0  0
   22.2317   77.0172   -8.2094 C   0  0  1  0  0  0  0  0  0  0  0  0
   22.1847   74.8692   -7.1620 C   0  0  1  0  0  0  0  0  0  0  0  0
   25.7650   75.7740   -9.7075 H   0  0  0  0  0  0  0  0  0  0  0  0
   25.0212   77.5079   -9.8614 H   0  0  0  0  0  0  0  0  0  0  0  0
   24.8896   73.1381   -7.7857 H   0  0  0  0  0  0  0  0  0  0  0  0
   21.3039   77.7280  -10.2934 O   0  0  0  0  0  0  0  0  0  0  0  0
   21.2972   78.0046   -8.9050 C   0  0  0  0  0  0  0  0  0  0  0  0
   20.7132   78.3486  -10.7490 H   0  0  0  0  0  0  0  0  0  0  0  0
 25 28  1  0
 25 24  1  0
 25 26  1  1
 25 27  2  0
  1  4  1  0
  1 24  1  0
  1  2  1  6
  1  3  2  0
  6 11  1  0
  6 12  1  0
 29 36  1  0
 29 37  1  0
  9  7  1  1
  7 13  1  0
 10  8  1  1
  8 14  1  0
 37 28  1  1
  4  5  1  0
 33 30  1  6
 30 38  1  0
 34 31  1  1
 31 39  1  0
 35 32  1  1
 32 40  1  0
 41 42  1  0
 41 43  1  0
 15 19  2  0
 16 22  2  0
 12 17  1  6
 17 19  1  0
 17 20  1  0
 18 19  1  0
 18 22  1  0
 18 23  1  0
  9 10  1  0
  9 11  1  0
 10 12  1  0
 11  5  1  6
 33 34  1  0
 33 35  1  0
 34 36  1  0
 35 37  1  0
 36 42  1  6
 20 21  2  0
 21 22  1  0
M  CHG  2   2  -1  26  -1
M  END
>  <COMPND>  (172) 
    8629 

>  <AUTHOR>  (172) 
    GENERATED BY OPEN BABEL 3.1.1

>  <MASTER>  (172) 
        0    0    0    0    0    0    0    0   58    0   58    0

>  <minimizedAffinity>  (172) 
-7.00229

>  <CNNscore>  (172) 
0.4392157197

>  <CNNaffinity>  (172) 
4.2786526680

>  <CNN_VS>  (172) 
1.8792514801

>  <CNNaffinity_variance>  (172) 
0.3018296063

$$$$
173
     RDKit          3D

 43 45  0  0  0  0  0  0  0  0999 V2000
   17.4692   69.4668   -2.6232 P   0  0  2  0  0  0  0  0  0  0  0  0
   16.2781   70.4169   -3.1671 O   0  0  0  0  0  0  0  0  0  0  0  0
   17.0242   68.1411   -2.0791 O   0  0  0  0  0  0  0  0  0  0  0  0
   18.2806   70.4131   -1.5917 O   0  0  0  0  0  0  0  0  0  0  0  0
   17.7543   71.6942   -1.2925 C   0  0  0  0  0  0  0  0  0  0  0  0
   19.9196   72.0078   -0.2992 O   0  0  0  0  0  0  0  0  0  0  0  0
   18.6432   74.1600    1.3529 O   0  0  0  0  0  0  0  0  0  0  0  0
   19.9279   75.5827   -0.5867 O   0  0  0  0  0  0  0  0  0  0  0  0
   18.3897   73.7929   -0.0021 C   0  0  1  0  0  0  0  0  0  0  0  0
   19.5177   74.2661   -0.8950 C   0  0  2  0  0  0  0  0  0  0  0  0
   18.5135   72.2781   -0.1089 C   0  0  1  0  0  0  0  0  0  0  0  0
   20.5975   73.2357   -0.6113 C   0  0  2  0  0  0  0  0  0  0  0  0
   18.5695   75.1233    1.4460 H   0  0  0  0  0  0  0  0  0  0  0  0
   19.2070   76.2008   -0.7843 H   0  0  0  0  0  0  0  0  0  0  0  0
   22.6656   71.3138   -0.6958 O   0  0  0  0  0  0  0  0  0  0  0  0
   23.8370   72.4953   -4.9939 O   0  0  0  0  0  0  0  0  0  0  0  0
   21.4581   73.0194   -1.7400 N   0  0  0  0  0  0  0  0  0  0  0  0
   23.2470   71.9035   -2.8359 N   0  0  0  0  0  0  0  0  0  0  0  0
   22.4666   72.0295   -1.6796 C   0  0  0  0  0  0  0  0  0  0  0  0
   21.2977   73.7839   -2.8904 C   0  0  0  0  0  0  0  0  0  0  0  0
   22.0511   73.6523   -3.9842 C   0  0  0  0  0  0  0  0  0  0  0  0
   23.1272   72.6405   -4.0035 C   0  0  0  0  0  0  0  0  0  0  0  0
   23.9561   71.2204   -2.8168 H   0  0  0  0  0  0  0  0  0  0  0  0
   18.4670   69.3727   -3.8915 O   0  0  0  0  0  0  0  0  0  0  0  0
   19.4871   70.4564   -4.5223 P   0  0  2  0  0  0  0  0  0  0  0  0
   20.9119   70.0450   -3.8755 O   0  0  0  0  0  0  0  0  0  0  0  0
   19.0899   71.8850   -4.2875 O   0  0  0  0  0  0  0  0  0  0  0  0
   19.6112   70.0437   -6.0777 O   0  0  0  0  0  0  0  0  0  0  0  0
   17.2925   70.2337   -6.5297 O   0  0  0  0  0  0  0  0  0  0  0  0
   18.7340   70.3990  -10.3956 O   0  0  0  0  0  0  0  0  0  0  0  0
   17.7015   72.7793   -9.1643 O   0  0  0  0  0  0  0  0  0  0  0  0
   19.9641   68.6210   -8.4707 O   0  0  0  0  0  0  0  0  0  0  0  0
   18.7547   70.6393   -8.9859 C   0  0  1  0  0  0  0  0  0  0  0  0
   17.5242   71.4730   -8.6234 C   0  0  1  0  0  0  0  0  0  0  0  0
   18.7325   69.3003   -8.2510 C   0  0  2  0  0  0  0  0  0  0  0  0
   17.3328   71.5459   -7.1025 C   0  0  1  0  0  0  0  0  0  0  0  0
   18.4878   69.4828   -6.7520 C   0  0  1  0  0  0  0  0  0  0  0  0
   18.7485   71.2452  -10.8682 H   0  0  0  0  0  0  0  0  0  0  0  0
   17.8217   72.7191  -10.1251 H   0  0  0  0  0  0  0  0  0  0  0  0
   20.1073   68.5114   -9.4233 H   0  0  0  0  0  0  0  0  0  0  0  0
   15.4231   71.5136   -5.6670 O   0  0  0  0  0  0  0  0  0  0  0  0
   16.0259   72.2386   -6.7231 C   0  0  0  0  0  0  0  0  0  0  0  0
   14.5903   71.9432   -5.4148 H   0  0  0  0  0  0  0  0  0  0  0  0
 25 28  1  0
 25 24  1  0
 25 26  1  1
 25 27  2  0
  1  4  1  0
  1 24  1  0
  1  2  1  6
  1  3  2  0
  6 11  1  0
  6 12  1  0
 29 36  1  0
 29 37  1  0
  9  7  1  1
  7 13  1  0
 10  8  1  1
  8 14  1  0
 37 28  1  6
  4  5  1  0
 33 30  1  6
 30 38  1  0
 34 31  1  1
 31 39  1  0
 35 32  1  1
 32 40  1  0
 41 42  1  0
 41 43  1  0
 15 19  2  0
 16 22  2  0
 12 17  1  6
 17 19  1  0
 17 20  1  0
 18 19  1  0
 18 22  1  0
 18 23  1  0
  9 10  1  0
  9 11  1  0
 10 12  1  0
 11  5  1  6
 33 34  1  0
 33 35  1  0
 34 36  1  0
 35 37  1  0
 36 42  1  6
 20 21  2  0
 21 22  1  0
M  CHG  2   2  -1  26  -1
M  END
>  <COMPND>  (173) 
    8629 

>  <AUTHOR>  (173) 
    GENERATED BY OPEN BABEL 3.1.1

>  <MASTER>  (173) 
        0    0    0    0    0    0    0    0   58    0   58    0

>  <minimizedAffinity>  (173) 
-7.98605

>  <CNNscore>  (173) 
0.4169773459

>  <CNNaffinity>  (173) 
3.8970818520

>  <CNN_VS>  (173) 
1.6249948740

>  <CNNaffinity_variance>  (173) 
0.7729173899

$$$$
174
     RDKit          3D

 43 45  0  0  0  0  0  0  0  0999 V2000
   16.4081   70.7547   -6.3882 P   0  0  2  0  0  0  0  0  0  0  0  0
   15.7920   71.9995   -5.5585 O   0  0  0  0  0  0  0  0  0  0  0  0
   16.0593   70.7309   -7.8473 O   0  0  0  0  0  0  0  0  0  0  0  0
   15.9533   69.4567   -5.5358 O   0  0  0  0  0  0  0  0  0  0  0  0
   16.9443   68.7301   -4.8302 C   0  0  0  0  0  0  0  0  0  0  0  0
   17.7091   68.5102   -2.5630 O   0  0  0  0  0  0  0  0  0  0  0  0
   14.9567   69.3769   -1.7481 O   0  0  0  0  0  0  0  0  0  0  0  0
   16.4138   71.6619   -1.4440 O   0  0  0  0  0  0  0  0  0  0  0  0
   15.7443   69.8016   -2.8592 C   0  0  1  0  0  0  0  0  0  0  0  0
   16.8588   70.7159   -2.3948 C   0  0  2  0  0  0  0  0  0  0  0  0
   16.5175   68.5944   -3.3750 C   0  0  1  0  0  0  0  0  0  0  0  0
   17.8557   69.7276   -1.8139 C   0  0  2  0  0  0  0  0  0  0  0  0
   14.4534   70.1310   -1.4016 H   0  0  0  0  0  0  0  0  0  0  0  0
   15.7819   72.2677   -1.8617 H   0  0  0  0  0  0  0  0  0  0  0  0
   19.0731   71.5699   -0.0526 O   0  0  0  0  0  0  0  0  0  0  0  0
   23.0629   71.4137   -2.3544 O   0  0  0  0  0  0  0  0  0  0  0  0
   19.2116   70.1856   -1.9292 N   0  0  0  0  0  0  0  0  0  0  0  0
   21.0587   71.4905   -1.2001 N   0  0  0  0  0  0  0  0  0  0  0  0
   19.7259   71.1127   -0.9930 C   0  0  0  0  0  0  0  0  0  0  0  0
   20.0162   69.7159   -2.9616 C   0  0  0  0  0  0  0  0  0  0  0  0
   21.2849   70.0871   -3.1459 C   0  0  0  0  0  0  0  0  0  0  0  0
   21.8987   71.0527   -2.2117 C   0  0  0  0  0  0  0  0  0  0  0  0
   21.4384   72.1358   -0.5604 H   0  0  0  0  0  0  0  0  0  0  0  0
   17.9908   70.8578   -6.0764 O   0  0  0  0  0  0  0  0  0  0  0  0
   19.2732   70.7804   -7.0574 P   0  0  2  0  0  0  0  0  0  0  0  0
   18.8426   71.7155   -8.3055 O   0  0  0  0  0  0  0  0  0  0  0  0
   19.6731   69.3845   -7.4385 O   0  0  0  0  0  0  0  0  0  0  0  0
   20.4216   71.6207   -6.2956 O   0  0  0  0  0  0  0  0  0  0  0  0
   20.2532   73.8914   -5.6383 O   0  0  0  0  0  0  0  0  0  0  0  0
   24.3362   73.6723   -6.2140 O   0  0  0  0  0  0  0  0  0  0  0  0
   23.2870   73.8303   -3.5453 O   0  0  0  0  0  0  0  0  0  0  0  0
   22.5478   72.2710   -8.0077 O   0  0  0  0  0  0  0  0  0  0  0  0
   23.0457   73.1854   -5.8358 C   0  0  1  0  0  0  0  0  0  0  0  0
   22.5079   74.0746   -4.7130 C   0  0  1  0  0  0  0  0  0  0  0  0
   22.1192   73.2324   -7.0494 C   0  0  2  0  0  0  0  0  0  0  0  0
   21.0265   73.7838   -4.4374 C   0  0  1  0  0  0  0  0  0  0  0  0
   20.6625   72.9779   -6.6580 C   0  0  1  0  0  0  0  0  0  0  0  0
   24.9295   73.6446   -5.4480 H   0  0  0  0  0  0  0  0  0  0  0  0
   24.2203   74.0173   -3.7328 H   0  0  0  0  0  0  0  0  0  0  0  0
   23.4713   72.4431   -8.2475 H   0  0  0  0  0  0  0  0  0  0  0  0
   20.9310   74.4537   -2.1459 O   0  0  0  0  0  0  0  0  0  0  0  0
   20.4283   74.7654   -3.4321 C   0  0  0  0  0  0  0  0  0  0  0  0
   20.5590   75.0706   -1.4957 H   0  0  0  0  0  0  0  0  0  0  0  0
 25 28  1  0
 25 24  1  0
 25 26  1  6
 25 27  2  0
  1  4  1  0
  1 24  1  0
  1  2  1  1
  1  3  2  0
  6 11  1  0
  6 12  1  0
 29 36  1  0
 29 37  1  0
  9  7  1  1
  7 13  1  0
 10  8  1  1
  8 14  1  0
 37 28  1  1
  4  5  1  0
 33 30  1  6
 30 38  1  0
 34 31  1  1
 31 39  1  0
 35 32  1  6
 32 40  1  0
 41 42  1  0
 41 43  1  0
 15 19  2  0
 16 22  2  0
 12 17  1  6
 17 19  1  0
 17 20  1  0
 18 19  1  0
 18 22  1  0
 18 23  1  0
  9 10  1  0
  9 11  1  0
 10 12  1  0
 11  5  1  6
 33 34  1  0
 33 35  1  0
 34 36  1  0
 35 37  1  0
 36 42  1  1
 20 21  2  0
 21 22  1  0
M  CHG  2   2  -1  26  -1
M  END
>  <COMPND>  (174) 
    8629 

>  <AUTHOR>  (174) 
    GENERATED BY OPEN BABEL 3.1.1

>  <MASTER>  (174) 
        0    0    0    0    0    0    0    0   58    0   58    0

>  <minimizedAffinity>  (174) 
-6.98836

>  <CNNscore>  (174) 
0.4118217826

>  <CNNaffinity>  (174) 
4.0457057953

>  <CNN_VS>  (174) 
1.6661098003

>  <CNNaffinity_variance>  (174) 
0.5426945090

$$$$
175
     RDKit          3D

 43 45  0  0  0  0  0  0  0  0999 V2000
   18.3921   73.6534   -3.1481 P   0  0  2  0  0  0  0  0  0  0  0  0
   19.4412   74.6475   -2.4210 O   0  0  0  0  0  0  0  0  0  0  0  0
   17.0228   74.2268   -3.3664 O   0  0  0  0  0  0  0  0  0  0  0  0
   18.4550   72.3039   -2.2578 O   0  0  0  0  0  0  0  0  0  0  0  0
   18.4484   71.0534   -2.9242 C   0  0  0  0  0  0  0  0  0  0  0  0
   16.5508   70.9836   -4.3966 O   0  0  0  0  0  0  0  0  0  0  0  0
   15.5154   68.7746   -2.6533 O   0  0  0  0  0  0  0  0  0  0  0  0
   16.5359   67.4185   -4.7879 O   0  0  0  0  0  0  0  0  0  0  0  0
   16.8585   69.0701   -3.0330 C   0  0  1  0  0  0  0  0  0  0  0  0
   17.0951   68.6784   -4.4766 C   0  0  2  0  0  0  0  0  0  0  0  0
   17.0086   70.5853   -3.0858 C   0  0  1  0  0  0  0  0  0  0  0  0
   16.4243   69.8170   -5.2261 C   0  0  2  0  0  0  0  0  0  0  0  0
   15.3954   67.8123   -2.6125 H   0  0  0  0  0  0  0  0  0  0  0  0
   16.9962   66.7275   -4.2865 H   0  0  0  0  0  0  0  0  0  0  0  0
   15.2524   71.3493   -7.2892 O   0  0  0  0  0  0  0  0  0  0  0  0
   18.8922   70.7493  -10.0520 O   0  0  0  0  0  0  0  0  0  0  0  0
   17.0437   70.0776   -6.4948 N   0  0  0  0  0  0  0  0  0  0  0  0
   17.0658   71.0495   -8.6631 N   0  0  0  0  0  0  0  0  0  0  0  0
   16.3698   70.8584   -7.4626 C   0  0  0  0  0  0  0  0  0  0  0  0
   18.3056   69.5615   -6.7690 C   0  0  0  0  0  0  0  0  0  0  0  0
   18.9552   69.7519   -7.9192 C   0  0  0  0  0  0  0  0  0  0  0  0
   18.3207   70.5563   -8.9833 C   0  0  0  0  0  0  0  0  0  0  0  0
   16.6156   71.5899   -9.3523 H   0  0  0  0  0  0  0  0  0  0  0  0
   19.1688   73.2322   -4.5017 O   0  0  0  0  0  0  0  0  0  0  0  0
   20.7476   73.1601   -4.8410 P   0  0  2  0  0  0  0  0  0  0  0  0
   21.1664   74.7157   -4.9905 O   0  0  0  0  0  0  0  0  0  0  0  0
   21.0826   72.3113   -6.0332 O   0  0  0  0  0  0  0  0  0  0  0  0
   21.4400   72.6820   -3.4637 O   0  0  0  0  0  0  0  0  0  0  0  0
   23.0061   74.1055   -2.3971 O   0  0  0  0  0  0  0  0  0  0  0  0
   24.0890   70.5172   -0.6643 O   0  0  0  0  0  0  0  0  0  0  0  0
   22.6983   72.4843    0.8992 O   0  0  0  0  0  0  0  0  0  0  0  0
   23.3215   70.6000   -3.4543 O   0  0  0  0  0  0  0  0  0  0  0  0
   23.1833   71.4772   -1.2153 C   0  0  1  0  0  0  0  0  0  0  0  0
   23.2702   72.7545   -0.3776 C   0  0  1  0  0  0  0  0  0  0  0  0
   23.5743   71.7575   -2.6652 C   0  0  2  0  0  0  0  0  0  0  0  0
   22.5325   73.9150   -1.0588 C   0  0  1  0  0  0  0  0  0  0  0  0
   22.8183   72.9608   -3.2315 C   0  0  1  0  0  0  0  0  0  0  0  0
   23.8459   70.3344    0.2560 H   0  0  0  0  0  0  0  0  0  0  0  0
   23.1729   71.7493    1.3184 H   0  0  0  0  0  0  0  0  0  0  0  0
   23.8059   69.8454   -3.0857 H   0  0  0  0  0  0  0  0  0  0  0  0
   23.7575   75.0559    0.6461 O   0  0  0  0  0  0  0  0  0  0  0  0
   22.7388   75.2358   -0.3204 C   0  0  0  0  0  0  0  0  0  0  0  0
   23.8999   75.8886    1.1237 H   0  0  0  0  0  0  0  0  0  0  0  0
 25 28  1  0
 25 24  1  0
 25 26  1  6
 25 27  2  0
  1  4  1  0
  1 24  1  0
  1  2  1  1
  1  3  2  0
  6 11  1  0
  6 12  1  0
 29 36  1  0
 29 37  1  0
  9  7  1  6
  7 13  1  0
 10  8  1  6
  8 14  1  0
 37 28  1  1
  4  5  1  0
 33 30  1  1
 30 38  1  0
 34 31  1  1
 31 39  1  0
 35 32  1  6
 32 40  1  0
 41 42  1  0
 41 43  1  0
 15 19  2  0
 16 22  2  0
 12 17  1  6
 17 19  1  0
 17 20  1  0
 18 19  1  0
 18 22  1  0
 18 23  1  0
  9 10  1  0
  9 11  1  0
 10 12  1  0
 11  5  1  6
 33 34  1  0
 33 35  1  0
 34 36  1  0
 35 37  1  0
 36 42  1  1
 20 21  2  0
 21 22  1  0
M  CHG  2   2  -1  26  -1
M  END
>  <COMPND>  (175) 
    8629 

>  <AUTHOR>  (175) 
    GENERATED BY OPEN BABEL 3.1.1

>  <MASTER>  (175) 
        0    0    0    0    0    0    0    0   58    0   58    0

>  <minimizedAffinity>  (175) 
-7.12735

>  <CNNscore>  (175) 
0.3976138234

>  <CNNaffinity>  (175) 
4.2203340530

>  <CNN_VS>  (175) 
1.6780631542

>  <CNNaffinity_variance>  (175) 
0.2782157958

$$$$
176
     RDKit          3D

 43 45  0  0  0  0  0  0  0  0999 V2000
   21.8118   71.6571   -3.5029 P   0  0  2  0  0  0  0  0  0  0  0  0
   23.0203   70.6827   -3.0473 O   0  0  0  0  0  0  0  0  0  0  0  0
   21.2611   72.5341   -2.4171 O   0  0  0  0  0  0  0  0  0  0  0  0
   20.7506   70.6576   -4.2048 O   0  0  0  0  0  0  0  0  0  0  0  0
   20.2129   69.5949   -3.4372 C   0  0  0  0  0  0  0  0  0  0  0  0
   18.2215   70.6495   -4.2714 O   0  0  0  0  0  0  0  0  0  0  0  0
   16.7178   68.9019   -2.3543 O   0  0  0  0  0  0  0  0  0  0  0  0
   16.3754   67.6092   -4.7309 O   0  0  0  0  0  0  0  0  0  0  0  0
   17.8899   68.6090   -3.1129 C   0  0  1  0  0  0  0  0  0  0  0  0
   17.5347   68.4011   -4.5704 C   0  0  2  0  0  0  0  0  0  0  0  0
   18.7399   69.8722   -3.1698 C   0  0  1  0  0  0  0  0  0  0  0  0
   17.3395   69.8281   -5.0538 C   0  0  2  0  0  0  0  0  0  0  0  0
   16.1592   68.1098   -2.3038 H   0  0  0  0  0  0  0  0  0  0  0  0
   16.5500   66.7110   -4.4091 H   0  0  0  0  0  0  0  0  0  0  0  0
   15.7375   71.2134   -6.9226 O   0  0  0  0  0  0  0  0  0  0  0  0
   18.6905   70.3657  -10.3580 O   0  0  0  0  0  0  0  0  0  0  0  0
   17.6659   69.9852   -6.4431 N   0  0  0  0  0  0  0  0  0  0  0  0
   17.2093   70.7903   -8.6316 N   0  0  0  0  0  0  0  0  0  0  0  0
   16.7928   70.6982   -7.2974 C   0  0  0  0  0  0  0  0  0  0  0  0
   18.8405   69.4358   -6.9454 C   0  0  0  0  0  0  0  0  0  0  0  0
   19.2225   69.5314   -8.2206 C   0  0  0  0  0  0  0  0  0  0  0  0
   18.3669   70.2603   -9.1790 C   0  0  0  0  0  0  0  0  0  0  0  0
   16.6167   71.2823   -9.2453 H   0  0  0  0  0  0  0  0  0  0  0  0
   22.4431   72.4565   -4.7580 O   0  0  0  0  0  0  0  0  0  0  0  0
   21.7406   73.3353   -5.9188 P   0  0  2  0  0  0  0  0  0  0  0  0
   21.6324   72.2978   -7.1555 O   0  0  0  0  0  0  0  0  0  0  0  0
   22.4591   74.6129   -6.2433 O   0  0  0  0  0  0  0  0  0  0  0  0
   20.2190   73.5323   -5.4176 O   0  0  0  0  0  0  0  0  0  0  0  0
   18.7882   75.0149   -6.5886 O   0  0  0  0  0  0  0  0  0  0  0  0
   16.7809   74.8707   -2.9829 O   0  0  0  0  0  0  0  0  0  0  0  0
   15.6762   73.5388   -5.2750 O   0  0  0  0  0  0  0  0  0  0  0  0
   19.6753   74.8930   -3.0243 O   0  0  0  0  0  0  0  0  0  0  0  0
   17.5683   74.3505   -4.0575 C   0  0  1  0  0  0  0  0  0  0  0  0
   16.7548   74.4670   -5.3481 C   0  0  1  0  0  0  0  0  0  0  0  0
   18.8624   75.1551   -4.1632 C   0  0  2  0  0  0  0  0  0  0  0  0
   17.6248   74.1793   -6.5791 C   0  0  1  0  0  0  0  0  0  0  0  0
   19.6273   74.8285   -5.4471 C   0  0  1  0  0  0  0  0  0  0  0  0
   15.9579   74.3638   -2.9101 H   0  0  0  0  0  0  0  0  0  0  0  0
   15.1350   73.7311   -4.4931 H   0  0  0  0  0  0  0  0  0  0  0  0
   19.1799   75.1040   -2.2182 H   0  0  0  0  0  0  0  0  0  0  0  0
   17.5234   73.7363   -8.9248 O   0  0  0  0  0  0  0  0  0  0  0  0
   16.8755   74.4432   -7.8833 C   0  0  0  0  0  0  0  0  0  0  0  0
   17.0572   73.8946   -9.7611 H   0  0  0  0  0  0  0  0  0  0  0  0
 25 28  1  0
 25 24  1  0
 25 26  1  6
 25 27  2  0
  1  4  1  0
  1 24  1  0
  1  2  1  1
  1  3  2  0
  6 11  1  0
  6 12  1  0
 29 36  1  0
 29 37  1  0
  9  7  1  1
  7 13  1  0
 10  8  1  1
  8 14  1  0
 37 28  1  1
  4  5  1  0
 33 30  1  1
 30 38  1  0
 34 31  1  1
 31 39  1  0
 35 32  1  1
 32 40  1  0
 41 42  1  0
 41 43  1  0
 15 19  2  0
 16 22  2  0
 12 17  1  6
 17 19  1  0
 17 20  1  0
 18 19  1  0
 18 22  1  0
 18 23  1  0
  9 10  1  0
  9 11  1  0
 10 12  1  0
 11  5  1  6
 33 34  1  0
 33 35  1  0
 34 36  1  0
 35 37  1  0
 36 42  1  6
 20 21  2  0
 21 22  1  0
M  CHG  2   2  -1  26  -1
M  END
>  <COMPND>  (176) 
    8629 

>  <AUTHOR>  (176) 
    GENERATED BY OPEN BABEL 3.1.1

>  <MASTER>  (176) 
        0    0    0    0    0    0    0    0   58    0   58    0

>  <minimizedAffinity>  (176) 
-6.61424

>  <CNNscore>  (176) 
0.3806253970

>  <CNNaffinity>  (176) 
4.1392755508

>  <CNN_VS>  (176) 
1.5755133629

>  <CNNaffinity_variance>  (176) 
0.5056178570

$$$$
177
     RDKit          3D

 43 45  0  0  0  0  0  0  0  0999 V2000
   23.1013   71.7376   -3.5806 P   0  0  2  0  0  0  0  0  0  0  0  0
   23.6793   72.5523   -4.8532 O   0  0  0  0  0  0  0  0  0  0  0  0
   23.8595   70.4917   -3.2281 O   0  0  0  0  0  0  0  0  0  0  0  0
   21.5350   71.5317   -3.9301 O   0  0  0  0  0  0  0  0  0  0  0  0
   20.9519   70.2612   -3.6984 C   0  0  0  0  0  0  0  0  0  0  0  0
   18.7758   71.0620   -4.3288 O   0  0  0  0  0  0  0  0  0  0  0  0
   17.7190   69.4246   -2.0500 O   0  0  0  0  0  0  0  0  0  0  0  0
   17.1707   67.8568   -4.2129 O   0  0  0  0  0  0  0  0  0  0  0  0
   18.7967   69.1412   -2.9409 C   0  0  1  0  0  0  0  0  0  0  0  0
   18.2635   68.7482   -4.3028 C   0  0  2  0  0  0  0  0  0  0  0  0
   19.5110   70.4522   -3.2452 C   0  0  1  0  0  0  0  0  0  0  0  0
   17.8731   70.0944   -4.8889 C   0  0  2  0  0  0  0  0  0  0  0  0
   17.2479   68.6022   -1.8408 H   0  0  0  0  0  0  0  0  0  0  0  0
   17.4700   67.0154   -3.8344 H   0  0  0  0  0  0  0  0  0  0  0  0
   16.0095   71.3292   -6.6152 O   0  0  0  0  0  0  0  0  0  0  0  0
   18.4157   70.1400  -10.3618 O   0  0  0  0  0  0  0  0  0  0  0  0
   17.9880   70.1229   -6.3197 N   0  0  0  0  0  0  0  0  0  0  0  0
   17.2092   70.7362   -8.4793 N   0  0  0  0  0  0  0  0  0  0  0  0
   16.9970   70.7687   -7.0951 C   0  0  0  0  0  0  0  0  0  0  0  0
   19.0744   69.5154   -6.9399 C   0  0  0  0  0  0  0  0  0  0  0  0
   19.2615   69.4922   -8.2612 C   0  0  0  0  0  0  0  0  0  0  0  0
   18.2720   70.1442   -9.1431 C   0  0  0  0  0  0  0  0  0  0  0  0
   16.5315   71.1795   -9.0396 H   0  0  0  0  0  0  0  0  0  0  0  0
   23.0694   72.8580   -2.4158 O   0  0  0  0  0  0  0  0  0  0  0  0
   22.5226   72.7939   -0.8960 P   0  0  2  0  0  0  0  0  0  0  0  0
   23.2283   74.0692   -0.1937 O   0  0  0  0  0  0  0  0  0  0  0  0
   22.7784   71.4861   -0.2046 O   0  0  0  0  0  0  0  0  0  0  0  0
   20.9642   73.1992   -1.0051 O   0  0  0  0  0  0  0  0  0  0  0  0
   20.1136   74.8531    0.4639 O   0  0  0  0  0  0  0  0  0  0  0  0
   16.5617   73.0558   -0.6337 O   0  0  0  0  0  0  0  0  0  0  0  0
   17.2012   75.6669   -1.6443 O   0  0  0  0  0  0  0  0  0  0  0  0
   18.9266   71.4410   -0.2102 O   0  0  0  0  0  0  0  0  0  0  0  0
   17.8972   73.5290   -0.8285 C   0  0  1  0  0  0  0  0  0  0  0  0
   17.9120   75.0387   -0.5811 C   0  0  1  0  0  0  0  0  0  0  0  0
   18.8275   72.8146    0.1501 C   0  0  2  0  0  0  0  0  0  0  0  0
   19.3483   75.5742   -0.5088 C   0  0  1  0  0  0  0  0  0  0  0  0
   20.2159   73.4563    0.1803 C   0  0  1  0  0  0  0  0  0  0  0  0
   15.9660   73.5051   -1.2524 H   0  0  0  0  0  0  0  0  0  0  0  0
   16.2960   75.3196   -1.6793 H   0  0  0  0  0  0  0  0  0  0  0  0
   18.0413   71.0462   -0.2254 H   0  0  0  0  0  0  0  0  0  0  0  0
   18.1241   77.4063    0.4151 O   0  0  0  0  0  0  0  0  0  0  0  0
   19.3901   77.0469   -0.1067 C   0  0  0  0  0  0  0  0  0  0  0  0
   18.1360   78.3411    0.6756 H   0  0  0  0  0  0  0  0  0  0  0  0
 25 28  1  0
 25 24  1  0
 25 26  1  1
 25 27  2  0
  1  4  1  0
  1 24  1  0
  1  2  1  6
  1  3  2  0
  6 11  1  0
  6 12  1  0
 29 36  1  0
 29 37  1  0
  9  7  1  1
  7 13  1  0
 10  8  1  1
  8 14  1  0
 37 28  1  6
  4  5  1  0
 33 30  1  1
 30 38  1  0
 34 31  1  6
 31 39  1  0
 35 32  1  6
 32 40  1  0
 41 42  1  0
 41 43  1  0
 15 19  2  0
 16 22  2  0
 12 17  1  6
 17 19  1  0
 17 20  1  0
 18 19  1  0
 18 22  1  0
 18 23  1  0
  9 10  1  0
  9 11  1  0
 10 12  1  0
 11  5  1  6
 33 34  1  0
 33 35  1  0
 34 36  1  0
 35 37  1  0
 36 42  1  1
 20 21  2  0
 21 22  1  0
M  CHG  2   2  -1  26  -1
M  END
>  <COMPND>  (177) 
    8629 

>  <AUTHOR>  (177) 
    GENERATED BY OPEN BABEL 3.1.1

>  <MASTER>  (177) 
        0    0    0    0    0    0    0    0   58    0   58    0

>  <minimizedAffinity>  (177) 
-7.71507

>  <CNNscore>  (177) 
0.3704467416

>  <CNNaffinity>  (177) 
4.3442440033

>  <CNN_VS>  (177) 
1.6093109846

>  <CNNaffinity_variance>  (177) 
0.1035669819

$$$$
178
     RDKit          3D

 43 45  0  0  0  0  0  0  0  0999 V2000
   18.1751   71.1463   -2.0741 P   0  0  2  0  0  0  0  0  0  0  0  0
   16.7329   71.8795   -2.0807 O   0  0  0  0  0  0  0  0  0  0  0  0
   18.2980   69.9983   -1.1157 O   0  0  0  0  0  0  0  0  0  0  0  0
   19.2257   72.3576   -1.8579 O   0  0  0  0  0  0  0  0  0  0  0  0
   19.6402   72.6657   -0.5384 C   0  0  0  0  0  0  0  0  0  0  0  0
   21.6122   71.8014   -1.6051 O   0  0  0  0  0  0  0  0  0  0  0  0
   23.0293   72.3674    0.9760 O   0  0  0  0  0  0  0  0  0  0  0  0
   23.7702   74.4779   -0.5841 O   0  0  0  0  0  0  0  0  0  0  0  0
   21.9880   73.1049    0.3379 C   0  0  1  0  0  0  0  0  0  0  0  0
   22.5326   73.8544   -0.8601 C   0  0  2  0  0  0  0  0  0  0  0  0
   21.0391   72.1077   -0.3152 C   0  0  1  0  0  0  0  0  0  0  0  0
   22.6529   72.7489   -1.8953 C   0  0  2  0  0  0  0  0  0  0  0  0
   23.6479   72.9831    1.4006 H   0  0  0  0  0  0  0  0  0  0  0  0
   23.6412   75.1732    0.0797 H   0  0  0  0  0  0  0  0  0  0  0  0
   23.8755   71.6085   -4.1719 O   0  0  0  0  0  0  0  0  0  0  0  0
   21.9264   74.6914   -6.9893 O   0  0  0  0  0  0  0  0  0  0  0  0
   22.4820   73.2332   -3.2361 N   0  0  0  0  0  0  0  0  0  0  0  0
   22.9038   73.1444   -5.5729 N   0  0  0  0  0  0  0  0  0  0  0  0
   23.1414   72.5894   -4.3090 C   0  0  0  0  0  0  0  0  0  0  0  0
   21.6677   74.3345   -3.4766 C   0  0  0  0  0  0  0  0  0  0  0  0
   21.4525   74.8523   -4.6877 C   0  0  0  0  0  0  0  0  0  0  0  0
   22.1042   74.2386   -5.8627 C   0  0  0  0  0  0  0  0  0  0  0  0
   23.3531   72.7126   -6.3354 H   0  0  0  0  0  0  0  0  0  0  0  0
   18.3896   70.7520   -3.6270 O   0  0  0  0  0  0  0  0  0  0  0  0
   19.3084   69.6147   -4.3163 P   0  0  2  0  0  0  0  0  0  0  0  0
   18.3772   68.2934   -4.2476 O   0  0  0  0  0  0  0  0  0  0  0  0
   20.6617   69.4520   -3.6870 O   0  0  0  0  0  0  0  0  0  0  0  0
   19.3414   70.0092   -5.8810 O   0  0  0  0  0  0  0  0  0  0  0  0
   17.0827   70.2634   -6.5521 O   0  0  0  0  0  0  0  0  0  0  0  0
   18.9318   70.9824  -10.1735 O   0  0  0  0  0  0  0  0  0  0  0  0
   17.7359   73.1613   -8.7348 O   0  0  0  0  0  0  0  0  0  0  0  0
   19.9731   68.9453   -8.3998 O   0  0  0  0  0  0  0  0  0  0  0  0
   18.7961   71.0174   -8.7502 C   0  0  1  0  0  0  0  0  0  0  0  0
   17.5210   71.7909   -8.4090 C   0  0  1  0  0  0  0  0  0  0  0  0
   18.7148   69.5866   -8.2212 C   0  0  2  0  0  0  0  0  0  0  0  0
   17.1649   71.6444   -6.9235 C   0  0  1  0  0  0  0  0  0  0  0  0
   18.3063   69.5517   -6.7474 C   0  0  1  0  0  0  0  0  0  0  0  0
   18.9845   71.8877  -10.5157 H   0  0  0  0  0  0  0  0  0  0  0  0
   17.9603   73.2399   -9.6754 H   0  0  0  0  0  0  0  0  0  0  0  0
   20.2202   68.9738   -9.3368 H   0  0  0  0  0  0  0  0  0  0  0  0
   15.3263   71.6957   -5.3984 O   0  0  0  0  0  0  0  0  0  0  0  0
   15.8141   72.2760   -6.5941 C   0  0  0  0  0  0  0  0  0  0  0  0
   14.4671   72.0884   -5.1762 H   0  0  0  0  0  0  0  0  0  0  0  0
 25 28  1  0
 25 24  1  0
 25 26  1  6
 25 27  2  0
  1  4  1  0
  1 24  1  0
  1  2  1  6
  1  3  2  0
  6 11  1  0
  6 12  1  0
 29 36  1  0
 29 37  1  0
  9  7  1  6
  7 13  1  0
 10  8  1  1
  8 14  1  0
 37 28  1  1
  4  5  1  0
 33 30  1  6
 30 38  1  0
 34 31  1  1
 31 39  1  0
 35 32  1  1
 32 40  1  0
 41 42  1  0
 41 43  1  0
 15 19  2  0
 16 22  2  0
 12 17  1  6
 17 19  1  0
 17 20  1  0
 18 19  1  0
 18 22  1  0
 18 23  1  0
  9 10  1  0
  9 11  1  0
 10 12  1  0
 11  5  1  6
 33 34  1  0
 33 35  1  0
 34 36  1  0
 35 37  1  0
 36 42  1  6
 20 21  2  0
 21 22  1  0
M  CHG  2   2  -1  26  -1
M  END
>  <COMPND>  (178) 
    8629 

>  <AUTHOR>  (178) 
    GENERATED BY OPEN BABEL 3.1.1

>  <MASTER>  (178) 
        0    0    0    0    0    0    0    0   58    0   58    0

>  <minimizedAffinity>  (178) 
-7.90427

>  <CNNscore>  (178) 
0.3551823795

>  <CNNaffinity>  (178) 
4.0271949768

>  <CNN_VS>  (178) 
1.4303886890

>  <CNNaffinity_variance>  (178) 
0.4976669252

$$$$
179
     RDKit          3D

 43 45  0  0  0  0  0  0  0  0999 V2000
   21.6410   71.4697   -1.8918 P   0  0  2  0  0  0  0  0  0  0  0  0
   22.2049   71.2061   -3.3851 O   0  0  0  0  0  0  0  0  0  0  0  0
   22.4027   70.7833   -0.7964 O   0  0  0  0  0  0  0  0  0  0  0  0
   20.0708   71.0941   -1.9977 O   0  0  0  0  0  0  0  0  0  0  0  0
   19.6094   70.4400   -3.1670 C   0  0  0  0  0  0  0  0  0  0  0  0
   17.5386   70.8842   -4.3020 O   0  0  0  0  0  0  0  0  0  0  0  0
   16.3149   68.8493   -2.4711 O   0  0  0  0  0  0  0  0  0  0  0  0
   16.6518   67.4426   -4.7828 O   0  0  0  0  0  0  0  0  0  0  0  0
   17.6132   68.8661   -3.0622 C   0  0  1  0  0  0  0  0  0  0  0  0
   17.5247   68.5258   -4.5352 C   0  0  2  0  0  0  0  0  0  0  0  0
   18.0939   70.3114   -3.0979 C   0  0  1  0  0  0  0  0  0  0  0  0
   17.0214   69.8300   -5.1302 C   0  0  2  0  0  0  0  0  0  0  0  0
   15.9870   67.9365   -2.4371 H   0  0  0  0  0  0  0  0  0  0  0  0
   17.0157   66.6364   -4.3847 H   0  0  0  0  0  0  0  0  0  0  0  0
   15.6142   71.2995   -7.0893 O   0  0  0  0  0  0  0  0  0  0  0  0
   18.8633   70.5271  -10.2654 O   0  0  0  0  0  0  0  0  0  0  0  0
   17.4766   70.0292   -6.4772 N   0  0  0  0  0  0  0  0  0  0  0  0
   17.2332   70.9139   -8.6691 N   0  0  0  0  0  0  0  0  0  0  0  0
   16.6941   70.7827   -7.3830 C   0  0  0  0  0  0  0  0  0  0  0  0
   18.6868   69.4808   -6.8879 C   0  0  0  0  0  0  0  0  0  0  0  0
   19.1862   69.6141   -8.1184 C   0  0  0  0  0  0  0  0  0  0  0  0
   18.4308   70.3866   -9.1257 C   0  0  0  0  0  0  0  0  0  0  0  0
   16.7053   71.4344   -9.3173 H   0  0  0  0  0  0  0  0  0  0  0  0
   21.6226   73.0828   -1.7897 O   0  0  0  0  0  0  0  0  0  0  0  0
   20.5543   74.1687   -2.3307 P   0  0  2  0  0  0  0  0  0  0  0  0
   20.6859   75.3805   -1.2670 O   0  0  0  0  0  0  0  0  0  0  0  0
   19.1607   73.6338   -2.4908 O   0  0  0  0  0  0  0  0  0  0  0  0
   21.2096   74.7451   -3.6884 O   0  0  0  0  0  0  0  0  0  0  0  0
   20.1408   73.5378   -5.4253 O   0  0  0  0  0  0  0  0  0  0  0  0
   22.5732   75.9684   -7.7114 O   0  0  0  0  0  0  0  0  0  0  0  0
   19.7453   76.4631   -7.6333 O   0  0  0  0  0  0  0  0  0  0  0  0
   23.5581   74.8737   -5.2191 O   0  0  0  0  0  0  0  0  0  0  0  0
   21.7376   75.6375   -6.5989 C   0  0  1  0  0  0  0  0  0  0  0  0
   20.3504   75.2743   -7.1324 C   0  0  1  0  0  0  0  0  0  0  0  0
   22.3508   74.4571   -5.8477 C   0  0  2  0  0  0  0  0  0  0  0  0
   19.4788   74.6537   -6.0323 C   0  0  1  0  0  0  0  0  0  0  0  0
   21.3835   73.8838   -4.8106 C   0  0  1  0  0  0  0  0  0  0  0  0
   22.1898   76.7175   -8.1923 H   0  0  0  0  0  0  0  0  0  0  0  0
   20.3059   76.8452   -8.3268 H   0  0  0  0  0  0  0  0  0  0  0  0
   24.1621   75.2344   -5.8862 H   0  0  0  0  0  0  0  0  0  0  0  0
   18.3306   73.7725   -7.9333 O   0  0  0  0  0  0  0  0  0  0  0  0
   18.1484   74.1400   -6.5783 C   0  0  0  0  0  0  0  0  0  0  0  0
   17.4920   73.4433   -8.2940 H   0  0  0  0  0  0  0  0  0  0  0  0
 25 28  1  0
 25 24  1  0
 25 26  1  1
 25 27  2  0
  1  4  1  0
  1 24  1  0
  1  2  1  6
  1  3  2  0
  6 11  1  0
  6 12  1  0
 29 36  1  0
 29 37  1  0
  9  7  1  6
  7 13  1  0
 10  8  1  1
  8 14  1  0
 37 28  1  1
  4  5  1  0
 33 30  1  6
 30 38  1  0
 34 31  1  1
 31 39  1  0
 35 32  1  1
 32 40  1  0
 41 42  1  0
 41 43  1  0
 15 19  2  0
 16 22  2  0
 12 17  1  6
 17 19  1  0
 17 20  1  0
 18 19  1  0
 18 22  1  0
 18 23  1  0
  9 10  1  0
  9 11  1  0
 10 12  1  0
 11  5  1  6
 33 34  1  0
 33 35  1  0
 34 36  1  0
 35 37  1  0
 36 42  1  6
 20 21  2  0
 21 22  1  0
M  CHG  2   2  -1  26  -1
M  END
>  <COMPND>  (179) 
    8629 

>  <AUTHOR>  (179) 
    GENERATED BY OPEN BABEL 3.1.1

>  <MASTER>  (179) 
        0    0    0    0    0    0    0    0   58    0   58    0

>  <minimizedAffinity>  (179) 
-6.78426

>  <CNNscore>  (179) 
0.3374695182

>  <CNNaffinity>  (179) 
4.0447931290

>  <CNN_VS>  (179) 
1.3649944067

>  <CNNaffinity_variance>  (179) 
0.6292189360

$$$$
180
     RDKit          3D

 43 45  0  0  0  0  0  0  0  0999 V2000
   20.3985   71.3734   -1.1688 P   0  0  2  0  0  0  0  0  0  0  0  0
   19.7217   69.9552   -0.7840 O   0  0  0  0  0  0  0  0  0  0  0  0
   20.6916   72.2726   -0.0040 O   0  0  0  0  0  0  0  0  0  0  0  0
   19.4098   71.9826   -2.2954 O   0  0  0  0  0  0  0  0  0  0  0  0
   18.7695   73.2197   -2.0355 C   0  0  0  0  0  0  0  0  0  0  0  0
   17.7286   72.3795   -4.0316 O   0  0  0  0  0  0  0  0  0  0  0  0
   15.8305   74.6880   -3.7892 O   0  0  0  0  0  0  0  0  0  0  0  0
   14.3670   72.6091   -2.8029 O   0  0  0  0  0  0  0  0  0  0  0  0
   16.4275   73.8991   -2.7613 C   0  0  1  0  0  0  0  0  0  0  0  0
   15.7743   72.5341   -2.6999 C   0  0  2  0  0  0  0  0  0  0  0  0
   17.8455   73.5537   -3.1986 C   0  0  1  0  0  0  0  0  0  0  0  0
   16.4104   71.8268   -3.8845 C   0  0  2  0  0  0  0  0  0  0  0  0
   14.9241   74.9212   -3.5323 H   0  0  0  0  0  0  0  0  0  0  0  0
   14.0098   73.0672   -2.0261 H   0  0  0  0  0  0  0  0  0  0  0  0
   16.5449   69.9238   -5.9673 O   0  0  0  0  0  0  0  0  0  0  0  0
   16.8235   66.4156   -2.9913 O   0  0  0  0  0  0  0  0  0  0  0  0
   16.5188   70.4095   -3.6825 N   0  0  0  0  0  0  0  0  0  0  0  0
   16.6837   68.1786   -4.4838 N   0  0  0  0  0  0  0  0  0  0  0  0
   16.5785   69.5399   -4.7963 C   0  0  0  0  0  0  0  0  0  0  0  0
   16.5653   69.8951   -2.3913 C   0  0  0  0  0  0  0  0  0  0  0  0
   16.6644   68.5942   -2.1102 C   0  0  0  0  0  0  0  0  0  0  0  0
   16.7321   67.6184   -3.2171 C   0  0  0  0  0  0  0  0  0  0  0  0
   16.7264   67.5539   -5.2439 H   0  0  0  0  0  0  0  0  0  0  0  0
   21.6982   70.9356   -2.0245 O   0  0  0  0  0  0  0  0  0  0  0  0
   23.0737   71.7225   -2.3432 P   0  0  2  0  0  0  0  0  0  0  0  0
   24.1986   70.5655   -2.2270 O   0  0  0  0  0  0  0  0  0  0  0  0
   23.3185   72.9147   -1.4642 O   0  0  0  0  0  0  0  0  0  0  0  0
   22.9961   72.0587   -3.9199 O   0  0  0  0  0  0  0  0  0  0  0  0
   22.9974   74.1959   -4.9439 O   0  0  0  0  0  0  0  0  0  0  0  0
   20.6052   72.1759   -7.6360 O   0  0  0  0  0  0  0  0  0  0  0  0
   23.2859   72.8897   -8.3789 O   0  0  0  0  0  0  0  0  0  0  0  0
   20.3663   71.6341   -4.8025 O   0  0  0  0  0  0  0  0  0  0  0  0
   21.6776   72.3238   -6.7015 C   0  0  1  0  0  0  0  0  0  0  0  0
   22.6253   73.4043   -7.2261 C   0  0  1  0  0  0  0  0  0  0  0  0
   21.1045   72.7245   -5.3434 C   0  0  2  0  0  0  0  0  0  0  0  0
   23.6508   73.8078   -6.1581 C   0  0  1  0  0  0  0  0  0  0  0  0
   22.2043   73.1545   -4.3709 C   0  0  1  0  0  0  0  0  0  0  0  0
   20.9622   71.9210   -8.5004 H   0  0  0  0  0  0  0  0  0  0  0  0
   22.6272   72.6382   -9.0453 H   0  0  0  0  0  0  0  0  0  0  0  0
   19.6731   71.3715   -5.4273 H   0  0  0  0  0  0  0  0  0  0  0  0
   25.8271   74.7937   -6.1400 O   0  0  0  0  0  0  0  0  0  0  0  0
   24.5044   74.9930   -6.6038 C   0  0  0  0  0  0  0  0  0  0  0  0
   26.3820   75.5403   -6.4166 H   0  0  0  0  0  0  0  0  0  0  0  0
 25 28  1  0
 25 24  1  0
 25 26  1  6
 25 27  2  0
  1  4  1  0
  1 24  1  0
  1  2  1  1
  1  3  2  0
  6 11  1  0
  6 12  1  0
 29 36  1  0
 29 37  1  0
  9  7  1  6
  7 13  1  0
 10  8  1  6
  8 14  1  0
 37 28  1  6
  4  5  1  0
 33 30  1  6
 30 38  1  0
 34 31  1  6
 31 39  1  0
 35 32  1  1
 32 40  1  0
 41 42  1  0
 41 43  1  0
 15 19  2  0
 16 22  2  0
 12 17  1  1
 17 19  1  0
 17 20  1  0
 18 19  1  0
 18 22  1  0
 18 23  1  0
  9 10  1  0
  9 11  1  0
 10 12  1  0
 11  5  1  1
 33 34  1  0
 33 35  1  0
 34 36  1  0
 35 37  1  0
 36 42  1  6
 20 21  2  0
 21 22  1  0
M  CHG  2   2  -1  26  -1
M  END
>  <COMPND>  (180) 
    8629 

>  <AUTHOR>  (180) 
    GENERATED BY OPEN BABEL 3.1.1

>  <MASTER>  (180) 
        0    0    0    0    0    0    0    0   58    0   58    0

>  <minimizedAffinity>  (180) 
-6.78497

>  <CNNscore>  (180) 
0.3276786804

>  <CNNaffinity>  (180) 
3.8368034363

>  <CNN_VS>  (180) 
1.2572387457

>  <CNNaffinity_variance>  (180) 
0.5305698514

$$$$
181
     RDKit          3D

 43 45  0  0  0  0  0  0  0  0999 V2000
   22.9572   72.0582   -3.6127 P   0  0  2  0  0  0  0  0  0  0  0  0
   23.7563   70.6920   -3.2772 O   0  0  0  0  0  0  0  0  0  0  0  0
   22.9317   73.0666   -2.5019 O   0  0  0  0  0  0  0  0  0  0  0  0
   21.5121   71.5459   -4.1298 O   0  0  0  0  0  0  0  0  0  0  0  0
   21.0231   70.3055   -3.6500 C   0  0  0  0  0  0  0  0  0  0  0  0
   18.8325   71.0913   -4.2480 O   0  0  0  0  0  0  0  0  0  0  0  0
   17.8218   69.4529   -1.9491 O   0  0  0  0  0  0  0  0  0  0  0  0
   17.2494   67.8766   -4.0996 O   0  0  0  0  0  0  0  0  0  0  0  0
   18.8870   69.1741   -2.8562 C   0  0  1  0  0  0  0  0  0  0  0  0
   18.3350   68.7745   -4.2087 C   0  0  2  0  0  0  0  0  0  0  0  0
   19.5883   70.4887   -3.1747 C   0  0  1  0  0  0  0  0  0  0  0  0
   17.9271   70.1169   -4.7916 C   0  0  2  0  0  0  0  0  0  0  0  0
   17.3592   68.6281   -1.7307 H   0  0  0  0  0  0  0  0  0  0  0  0
   17.5597   67.0380   -3.7239 H   0  0  0  0  0  0  0  0  0  0  0  0
   16.0216   71.3234   -6.4920 O   0  0  0  0  0  0  0  0  0  0  0  0
   18.3839   70.1535  -10.2724 O   0  0  0  0  0  0  0  0  0  0  0  0
   18.0194   70.1427   -6.2242 N   0  0  0  0  0  0  0  0  0  0  0  0
   17.1995   70.7401   -8.3729 N   0  0  0  0  0  0  0  0  0  0  0  0
   17.0084   70.7739   -6.9857 C   0  0  0  0  0  0  0  0  0  0  0  0
   19.1035   69.5471   -6.8596 C   0  0  0  0  0  0  0  0  0  0  0  0
   19.2703   69.5223   -8.1835 C   0  0  0  0  0  0  0  0  0  0  0  0
   18.2592   70.1595   -9.0517 C   0  0  0  0  0  0  0  0  0  0  0  0
   16.5076   71.1732   -8.9238 H   0  0  0  0  0  0  0  0  0  0  0  0
   23.6682   72.5710   -4.9708 O   0  0  0  0  0  0  0  0  0  0  0  0
   23.0787   73.3898   -6.2337 P   0  0  2  0  0  0  0  0  0  0  0  0
   22.0580   74.4424   -5.5497 O   0  0  0  0  0  0  0  0  0  0  0  0
   22.4588   72.5250   -7.2927 O   0  0  0  0  0  0  0  0  0  0  0  0
   24.3134   74.2940   -6.7466 O   0  0  0  0  0  0  0  0  0  0  0  0
   26.0810   75.4202   -5.6403 O   0  0  0  0  0  0  0  0  0  0  0  0
   25.0963   78.3092   -8.4214 O   0  0  0  0  0  0  0  0  0  0  0  0
   27.5324   76.8190   -8.7266 O   0  0  0  0  0  0  0  0  0  0  0  0
   23.0104   76.7439   -7.1651 O   0  0  0  0  0  0  0  0  0  0  0  0
   25.2803   76.9763   -7.9366 C   0  0  1  0  0  0  0  0  0  0  0  0
   26.7477   76.8095   -7.5373 C   0  0  1  0  0  0  0  0  0  0  0  0
   24.3668   76.7525   -6.7329 C   0  0  2  0  0  0  0  0  0  0  0  0
   26.9662   75.5024   -6.7634 C   0  0  1  0  0  0  0  0  0  0  0  0
   24.6999   75.4485   -6.0058 C   0  0  1  0  0  0  0  0  0  0  0  0
   25.6732   78.4576   -9.1861 H   0  0  0  0  0  0  0  0  0  0  0  0
   27.3849   77.6494   -9.2061 H   0  0  0  0  0  0  0  0  0  0  0  0
   22.8120   77.5747   -7.6236 H   0  0  0  0  0  0  0  0  0  0  0  0
   29.2052   74.8005   -7.2139 O   0  0  0  0  0  0  0  0  0  0  0  0
   28.3887   75.3908   -6.2193 C   0  0  0  0  0  0  0  0  0  0  0  0
   30.1137   74.7234   -6.8817 H   0  0  0  0  0  0  0  0  0  0  0  0
 25 28  1  0
 25 24  1  0
 25 26  1  1
 25 27  2  0
  1  4  1  0
  1 24  1  0
  1  2  1  1
  1  3  2  0
  6 11  1  0
  6 12  1  0
 29 36  1  0
 29 37  1  0
  9  7  1  1
  7 13  1  0
 10  8  1  1
  8 14  1  0
 37 28  1  6
  4  5  1  0
 33 30  1  1
 30 38  1  0
 34 31  1  6
 31 39  1  0
 35 32  1  6
 32 40  1  0
 41 42  1  0
 41 43  1  0
 15 19  2  0
 16 22  2  0
 12 17  1  6
 17 19  1  0
 17 20  1  0
 18 19  1  0
 18 22  1  0
 18 23  1  0
  9 10  1  0
  9 11  1  0
 10 12  1  0
 11  5  1  6
 33 34  1  0
 33 35  1  0
 34 36  1  0
 35 37  1  0
 36 42  1  1
 20 21  2  0
 21 22  1  0
M  CHG  2   2  -1  26  -1
M  END
>  <COMPND>  (181) 
    8629 

>  <AUTHOR>  (181) 
    GENERATED BY OPEN BABEL 3.1.1

>  <MASTER>  (181) 
        0    0    0    0    0    0    0    0   58    0   58    0

>  <minimizedAffinity>  (181) 
-7.34732

>  <CNNscore>  (181) 
0.6950958967

>  <CNNaffinity>  (181) 
4.5536007881

>  <CNN_VS>  (181) 
3.1651892662

>  <CNNaffinity_variance>  (181) 
0.1101141945

$$$$
182
     RDKit          3D

 43 45  0  0  0  0  0  0  0  0999 V2000
   20.4962   70.5521   -1.6040 P   0  0  2  0  0  0  0  0  0  0  0  0
   20.1855   69.3205   -0.6020 O   0  0  0  0  0  0  0  0  0  0  0  0
   19.6487   71.7718   -1.3908 O   0  0  0  0  0  0  0  0  0  0  0  0
   20.4114   69.8861   -3.0761 O   0  0  0  0  0  0  0  0  0  0  0  0
   19.5164   68.8064   -3.2791 C   0  0  0  0  0  0  0  0  0  0  0  0
   17.8109   70.2614   -4.1439 O   0  0  0  0  0  0  0  0  0  0  0  0
   15.8682   68.6209   -2.5546 O   0  0  0  0  0  0  0  0  0  0  0  0
   15.5487   67.6401   -5.0790 O   0  0  0  0  0  0  0  0  0  0  0  0
   17.0443   68.2060   -3.2476 C   0  0  1  0  0  0  0  0  0  0  0  0
   16.8003   68.2028   -4.7422 C   0  0  2  0  0  0  0  0  0  0  0  0
   18.0892   69.3047   -3.0981 C   0  0  1  0  0  0  0  0  0  0  0  0
   16.8859   69.6819   -5.0786 C   0  0  2  0  0  0  0  0  0  0  0  0
   15.1865   67.9349   -2.6356 H   0  0  0  0  0  0  0  0  0  0  0  0
   15.5440   66.6986   -4.8460 H   0  0  0  0  0  0  0  0  0  0  0  0
   15.5578   71.2749   -6.9959 O   0  0  0  0  0  0  0  0  0  0  0  0
   18.8132   70.4985  -10.1646 O   0  0  0  0  0  0  0  0  0  0  0  0
   17.3642   69.9135   -6.4123 N   0  0  0  0  0  0  0  0  0  0  0  0
   17.1799   70.8872   -8.5721 N   0  0  0  0  0  0  0  0  0  0  0  0
   16.6211   70.7289   -7.2974 C   0  0  0  0  0  0  0  0  0  0  0  0
   18.5578   69.3354   -6.8307 C   0  0  0  0  0  0  0  0  0  0  0  0
   19.0764   69.4952   -8.0500 C   0  0  0  0  0  0  0  0  0  0  0  0
   18.3623   70.3324   -9.0355 C   0  0  0  0  0  0  0  0  0  0  0  0
   16.6795   71.4508   -9.2058 H   0  0  0  0  0  0  0  0  0  0  0  0
   22.0823   70.7917   -1.4044 O   0  0  0  0  0  0  0  0  0  0  0  0
   23.1320   71.6969   -2.2361 P   0  0  2  0  0  0  0  0  0  0  0  0
   24.3636   70.6831   -2.5063 O   0  0  0  0  0  0  0  0  0  0  0  0
   23.5208   72.9748   -1.5507 O   0  0  0  0  0  0  0  0  0  0  0  0
   22.4435   71.8962   -3.6822 O   0  0  0  0  0  0  0  0  0  0  0  0
   23.0376   73.9712   -4.6611 O   0  0  0  0  0  0  0  0  0  0  0  0
   20.0740   72.8227   -7.2971 O   0  0  0  0  0  0  0  0  0  0  0  0
   22.8211   72.7462   -8.1311 O   0  0  0  0  0  0  0  0  0  0  0  0
   19.7778   72.2855   -4.4681 O   0  0  0  0  0  0  0  0  0  0  0  0
   21.1721   72.6218   -6.4031 C   0  0  1  0  0  0  0  0  0  0  0  0
   22.3772   73.3947   -6.9425 C   0  0  1  0  0  0  0  0  0  0  0  0
   20.7852   73.1294   -5.0153 C   0  0  2  0  0  0  0  0  0  0  0  0
   23.5095   73.4476   -5.9080 C   0  0  1  0  0  0  0  0  0  0  0  0
   21.9932   73.1890   -4.0786 C   0  0  1  0  0  0  0  0  0  0  0  0
   20.3129   72.5020   -8.1800 H   0  0  0  0  0  0  0  0  0  0  0  0
   22.0966   72.7189   -8.7758 H   0  0  0  0  0  0  0  0  0  0  0  0
   19.0184   72.2563   -5.0701 H   0  0  0  0  0  0  0  0  0  0  0  0
   24.1510   75.6497   -6.5776 O   0  0  0  0  0  0  0  0  0  0  0  0
   24.6581   74.3455   -6.3627 C   0  0  0  0  0  0  0  0  0  0  0  0
   24.8710   76.2323   -6.8671 H   0  0  0  0  0  0  0  0  0  0  0  0
 25 28  1  0
 25 24  1  0
 25 26  1  6
 25 27  2  0
  1  4  1  0
  1 24  1  0
  1  2  1  1
  1  3  2  0
  6 11  1  0
  6 12  1  0
 29 36  1  0
 29 37  1  0
  9  7  1  1
  7 13  1  0
 10  8  1  1
  8 14  1  0
 37 28  1  6
  4  5  1  0
 33 30  1  6
 30 38  1  0
 34 31  1  6
 31 39  1  0
 35 32  1  1
 32 40  1  0
 41 42  1  0
 41 43  1  0
 15 19  2  0
 16 22  2  0
 12 17  1  6
 17 19  1  0
 17 20  1  0
 18 19  1  0
 18 22  1  0
 18 23  1  0
  9 10  1  0
  9 11  1  0
 10 12  1  0
 11  5  1  6
 33 34  1  0
 33 35  1  0
 34 36  1  0
 35 37  1  0
 36 42  1  6
 20 21  2  0
 21 22  1  0
M  CHG  2   2  -1  26  -1
M  END
>  <COMPND>  (182) 
    8629 

>  <AUTHOR>  (182) 
    GENERATED BY OPEN BABEL 3.1.1

>  <MASTER>  (182) 
        0    0    0    0    0    0    0    0   58    0   58    0

>  <minimizedAffinity>  (182) 
-8.38652

>  <CNNscore>  (182) 
0.6370658875

>  <CNNaffinity>  (182) 
4.4316186905

>  <CNN_VS>  (182) 
2.8232331276

>  <CNNaffinity_variance>  (182) 
0.6535354257

$$$$
183
     RDKit          3D

 43 45  0  0  0  0  0  0  0  0999 V2000
   22.1307   71.5637   -2.4760 P   0  0  2  0  0  0  0  0  0  0  0  0
   22.9961   70.4555   -3.2762 O   0  0  0  0  0  0  0  0  0  0  0  0
   22.7723   72.0861   -1.2243 O   0  0  0  0  0  0  0  0  0  0  0  0
   20.6846   70.8635   -2.2848 O   0  0  0  0  0  0  0  0  0  0  0  0
   20.0688   70.2652   -3.4121 C   0  0  0  0  0  0  0  0  0  0  0  0
   17.9648   70.9039   -4.3812 O   0  0  0  0  0  0  0  0  0  0  0  0
   16.7045   69.0008   -2.4367 O   0  0  0  0  0  0  0  0  0  0  0  0
   16.7164   67.5623   -4.7534 O   0  0  0  0  0  0  0  0  0  0  0  0
   17.9462   68.8911   -3.1306 C   0  0  1  0  0  0  0  0  0  0  0  0
   17.7063   68.5572   -4.5882 C   0  0  2  0  0  0  0  0  0  0  0  0
   18.5585   70.2833   -3.2198 C   0  0  1  0  0  0  0  0  0  0  0  0
   17.2835   69.9022   -5.1541 C   0  0  2  0  0  0  0  0  0  0  0  0
   16.2946   68.1239   -2.3670 H   0  0  0  0  0  0  0  0  0  0  0  0
   17.0326   66.7259   -4.3777 H   0  0  0  0  0  0  0  0  0  0  0  0
   15.7630   71.3366   -7.0537 O   0  0  0  0  0  0  0  0  0  0  0  0
   18.7665   70.4140  -10.4255 O   0  0  0  0  0  0  0  0  0  0  0  0
   17.6449   70.0533   -6.5354 N   0  0  0  0  0  0  0  0  0  0  0  0
   17.2598   70.8762   -8.7310 N   0  0  0  0  0  0  0  0  0  0  0  0
   16.8115   70.7927   -7.4066 C   0  0  0  0  0  0  0  0  0  0  0  0
   18.8145   69.4722   -7.0132 C   0  0  0  0  0  0  0  0  0  0  0  0
   19.2273   69.5600   -8.2794 C   0  0  0  0  0  0  0  0  0  0  0  0
   18.4139   70.3150   -9.2543 C   0  0  0  0  0  0  0  0  0  0  0  0
   16.6951   71.3860   -9.3562 H   0  0  0  0  0  0  0  0  0  0  0  0
   21.8448   72.6856   -3.6041 O   0  0  0  0  0  0  0  0  0  0  0  0
   22.8560   73.5403   -4.5314 P   0  0  2  0  0  0  0  0  0  0  0  0
   21.8626   74.4842   -5.3915 O   0  0  0  0  0  0  0  0  0  0  0  0
   23.7871   72.7035   -5.3601 O   0  0  0  0  0  0  0  0  0  0  0  0
   23.5934   74.5489   -3.5097 O   0  0  0  0  0  0  0  0  0  0  0  0
   21.9056   75.8489   -2.4715 O   0  0  0  0  0  0  0  0  0  0  0  0
   25.2321   77.6045   -0.7677 O   0  0  0  0  0  0  0  0  0  0  0  0
   23.5502   75.9087    0.8271 O   0  0  0  0  0  0  0  0  0  0  0  0
   25.2959   76.7796   -3.5417 O   0  0  0  0  0  0  0  0  0  0  0  0
   24.4550   76.5277   -1.2987 C   0  0  1  0  0  0  0  0  0  0  0  0
   23.1821   76.3960   -0.4603 C   0  0  1  0  0  0  0  0  0  0  0  0
   24.1103   76.8319   -2.7555 C   0  0  2  0  0  0  0  0  0  0  0  0
   22.1773   75.4449   -1.1244 C   0  0  1  0  0  0  0  0  0  0  0  0
   23.0667   75.8572   -3.3043 C   0  0  1  0  0  0  0  0  0  0  0  0
   25.4548   77.4174    0.1569 H   0  0  0  0  0  0  0  0  0  0  0  0
   24.1853   76.5180    1.2353 H   0  0  0  0  0  0  0  0  0  0  0  0
   25.9484   77.4012   -3.1843 H   0  0  0  0  0  0  0  0  0  0  0  0
   20.7912   76.5287    0.4921 O   0  0  0  0  0  0  0  0  0  0  0  0
   20.8399   75.4205   -0.3876 C   0  0  0  0  0  0  0  0  0  0  0  0
   19.9453   76.5263    0.9677 H   0  0  0  0  0  0  0  0  0  0  0  0
 25 28  1  0
 25 24  1  0
 25 26  1  6
 25 27  2  0
  1  4  1  0
  1 24  1  0
  1  2  1  6
  1  3  2  0
  6 11  1  0
  6 12  1  0
 29 36  1  0
 29 37  1  0
  9  7  1  1
  7 13  1  0
 10  8  1  1
  8 14  1  0
 37 28  1  1
  4  5  1  0
 33 30  1  1
 30 38  1  0
 34 31  1  1
 31 39  1  0
 35 32  1  6
 32 40  1  0
 41 42  1  0
 41 43  1  0
 15 19  2  0
 16 22  2  0
 12 17  1  6
 17 19  1  0
 17 20  1  0
 18 19  1  0
 18 22  1  0
 18 23  1  0
  9 10  1  0
  9 11  1  0
 10 12  1  0
 11  5  1  6
 33 34  1  0
 33 35  1  0
 34 36  1  0
 35 37  1  0
 36 42  1  1
 20 21  2  0
 21 22  1  0
M  CHG  2   2  -1  26  -1
M  END
>  <COMPND>  (183) 
    8629 

>  <AUTHOR>  (183) 
    GENERATED BY OPEN BABEL 3.1.1

>  <MASTER>  (183) 
        0    0    0    0    0    0    0    0   58    0   58    0

>  <minimizedAffinity>  (183) 
-7.12933

>  <CNNscore>  (183) 
0.6248151660

>  <CNNaffinity>  (183) 
4.5456495285

>  <CNN_VS>  (183) 
2.8401906490

>  <CNNaffinity_variance>  (183) 
0.0143140974

$$$$
184
     RDKit          3D

 43 45  0  0  0  0  0  0  0  0999 V2000
   20.2505   70.8402   -1.6467 P   0  0  2  0  0  0  0  0  0  0  0  0
   20.1741   69.4269   -0.8631 O   0  0  0  0  0  0  0  0  0  0  0  0
   20.0322   72.0525   -0.7899 O   0  0  0  0  0  0  0  0  0  0  0  0
   19.2197   70.6568   -2.8802 O   0  0  0  0  0  0  0  0  0  0  0  0
   18.2899   71.6929   -3.1441 C   0  0  0  0  0  0  0  0  0  0  0  0
   16.4411   71.3143   -4.6316 O   0  0  0  0  0  0  0  0  0  0  0  0
   15.5546   69.2065   -2.6920 O   0  0  0  0  0  0  0  0  0  0  0  0
   16.7375   67.7402   -4.6636 O   0  0  0  0  0  0  0  0  0  0  0  0
   16.8766   69.5783   -3.0783 C   0  0  1  0  0  0  0  0  0  0  0  0
   17.1804   69.0682   -4.4716 C   0  0  2  0  0  0  0  0  0  0  0  0
   16.8992   71.0883   -3.2805 C   0  0  1  0  0  0  0  0  0  0  0  0
   16.4339   70.0651   -5.3417 C   0  0  2  0  0  0  0  0  0  0  0  0
   15.5155   68.2462   -2.5567 H   0  0  0  0  0  0  0  0  0  0  0  0
   17.2423   67.1444   -4.0883 H   0  0  0  0  0  0  0  0  0  0  0  0
   15.2612   71.4529   -7.5043 O   0  0  0  0  0  0  0  0  0  0  0  0
   18.9258   70.7186  -10.2010 O   0  0  0  0  0  0  0  0  0  0  0  0
   17.0594   70.2520   -6.6205 N   0  0  0  0  0  0  0  0  0  0  0  0
   17.0869   71.0863   -8.8452 N   0  0  0  0  0  0  0  0  0  0  0  0
   16.3845   70.9636   -7.6396 C   0  0  0  0  0  0  0  0  0  0  0  0
   18.3283   69.7329   -6.8537 C   0  0  0  0  0  0  0  0  0  0  0  0
   18.9839   69.8575   -8.0095 C   0  0  0  0  0  0  0  0  0  0  0  0
   18.3489   70.5871   -9.1260 C   0  0  0  0  0  0  0  0  0  0  0  0
   16.6362   71.5778   -9.5698 H   0  0  0  0  0  0  0  0  0  0  0  0
   21.6956   70.7780   -2.3685 O   0  0  0  0  0  0  0  0  0  0  0  0
   22.7441   71.9484   -2.7475 P   0  0  2  0  0  0  0  0  0  0  0  0
   23.8881   71.1657   -3.5819 O   0  0  0  0  0  0  0  0  0  0  0  0
   23.2577   72.7205   -1.5669 O   0  0  0  0  0  0  0  0  0  0  0  0
   21.9764   72.8435   -3.8495 O   0  0  0  0  0  0  0  0  0  0  0  0
   20.5990   72.4085   -5.7283 O   0  0  0  0  0  0  0  0  0  0  0  0
   23.1003   75.2448   -7.3865 O   0  0  0  0  0  0  0  0  0  0  0  0
   20.3816   75.9371   -6.7725 O   0  0  0  0  0  0  0  0  0  0  0  0
   24.1657   73.2763   -5.5509 O   0  0  0  0  0  0  0  0  0  0  0  0
   22.3380   74.6293   -6.3447 C   0  0  1  0  0  0  0  0  0  0  0  0
   20.8709   74.5989   -6.7779 C   0  0  1  0  0  0  0  0  0  0  0  0
   22.8601   73.2123   -6.1146 C   0  0  2  0  0  0  0  0  0  0  0  0
   20.0340   73.7201   -5.8385 C   0  0  1  0  0  0  0  0  0  0  0  0
   21.9290   72.4079   -5.2057 C   0  0  1  0  0  0  0  0  0  0  0  0
   22.7742   76.1450   -7.5373 H   0  0  0  0  0  0  0  0  0  0  0  0
   20.9189   76.4816   -7.3692 H   0  0  0  0  0  0  0  0  0  0  0  0
   24.7455   73.7877   -6.1358 H   0  0  0  0  0  0  0  0  0  0  0  0
   18.5921   73.7376   -7.7437 O   0  0  0  0  0  0  0  0  0  0  0  0
   18.6021   73.5482   -6.3407 C   0  0  0  0  0  0  0  0  0  0  0  0
   17.6871   73.6308   -8.0773 H   0  0  0  0  0  0  0  0  0  0  0  0
 25 28  1  0
 25 24  1  0
 25 26  1  6
 25 27  2  0
  1  4  1  0
  1 24  1  0
  1  2  1  1
  1  3  2  0
  6 11  1  0
  6 12  1  0
 29 36  1  0
 29 37  1  0
  9  7  1  6
  7 13  1  0
 10  8  1  1
  8 14  1  0
 37 28  1  1
  4  5  1  0
 33 30  1  6
 30 38  1  0
 34 31  1  1
 31 39  1  0
 35 32  1  1
 32 40  1  0
 41 42  1  0
 41 43  1  0
 15 19  2  0
 16 22  2  0
 12 17  1  6
 17 19  1  0
 17 20  1  0
 18 19  1  0
 18 22  1  0
 18 23  1  0
  9 10  1  0
  9 11  1  0
 10 12  1  0
 11  5  1  6
 33 34  1  0
 33 35  1  0
 34 36  1  0
 35 37  1  0
 36 42  1  6
 20 21  2  0
 21 22  1  0
M  CHG  2   2  -1  26  -1
M  END
>  <COMPND>  (184) 
    8629 

>  <AUTHOR>  (184) 
    GENERATED BY OPEN BABEL 3.1.1

>  <MASTER>  (184) 
        0    0    0    0    0    0    0    0   58    0   58    0

>  <minimizedAffinity>  (184) 
-7.72633

>  <CNNscore>  (184) 
0.5282061696

>  <CNNaffinity>  (184) 
4.2480802536

>  <CNN_VS>  (184) 
2.2438621521

>  <CNNaffinity_variance>  (184) 
0.6922167540

$$$$
185
     RDKit          3D

 43 45  0  0  0  0  0  0  0  0999 V2000
   21.7384   71.6830   -3.6386 P   0  0  2  0  0  0  0  0  0  0  0  0
   23.0567   70.8018   -3.3179 O   0  0  0  0  0  0  0  0  0  0  0  0
   21.2214   72.4927   -2.4860 O   0  0  0  0  0  0  0  0  0  0  0  0
   20.7000   70.6136   -4.2679 O   0  0  0  0  0  0  0  0  0  0  0  0
   20.1862   69.5951   -3.4275 C   0  0  0  0  0  0  0  0  0  0  0  0
   18.1924   70.6409   -4.2670 O   0  0  0  0  0  0  0  0  0  0  0  0
   16.6917   68.8902   -2.3504 O   0  0  0  0  0  0  0  0  0  0  0  0
   16.3589   67.5929   -4.7258 O   0  0  0  0  0  0  0  0  0  0  0  0
   17.8664   68.6007   -3.1063 C   0  0  1  0  0  0  0  0  0  0  0  0
   17.5148   68.3894   -4.5642 C   0  0  2  0  0  0  0  0  0  0  0  0
   18.7116   69.8671   -3.1634 C   0  0  1  0  0  0  0  0  0  0  0  0
   17.3151   69.8150   -5.0500 C   0  0  2  0  0  0  0  0  0  0  0  0
   16.1361   68.0960   -2.2998 H   0  0  0  0  0  0  0  0  0  0  0  0
   16.5363   66.6958   -4.4024 H   0  0  0  0  0  0  0  0  0  0  0  0
   15.8286   71.3757   -6.8754 O   0  0  0  0  0  0  0  0  0  0  0  0
   18.6683   70.3408  -10.3549 O   0  0  0  0  0  0  0  0  0  0  0  0
   17.6436   69.9713   -6.4389 N   0  0  0  0  0  0  0  0  0  0  0  0
   17.2438   70.8593   -8.6064 N   0  0  0  0  0  0  0  0  0  0  0  0
   16.8310   70.7768   -7.2704 C   0  0  0  0  0  0  0  0  0  0  0  0
   18.7608   69.3304   -6.9632 C   0  0  0  0  0  0  0  0  0  0  0  0
   19.1402   69.4183   -8.2397 C   0  0  0  0  0  0  0  0  0  0  0  0
   18.3455   70.2401   -9.1752 C   0  0  0  0  0  0  0  0  0  0  0  0
   16.6927   71.4146   -9.2045 H   0  0  0  0  0  0  0  0  0  0  0  0
   22.1872   72.5536   -4.9245 O   0  0  0  0  0  0  0  0  0  0  0  0
   21.3115   73.2804   -6.0725 P   0  0  2  0  0  0  0  0  0  0  0  0
   20.3478   74.2717   -5.2322 O   0  0  0  0  0  0  0  0  0  0  0  0
   20.5839   72.3342   -6.9831 O   0  0  0  0  0  0  0  0  0  0  0  0
   22.3523   74.2613   -6.8207 O   0  0  0  0  0  0  0  0  0  0  0  0
   23.7704   73.8544   -8.6754 O   0  0  0  0  0  0  0  0  0  0  0  0
   26.2416   76.3355   -6.4872 O   0  0  0  0  0  0  0  0  0  0  0  0
   25.0045   77.3217   -8.8840 O   0  0  0  0  0  0  0  0  0  0  0  0
   24.5904   74.3818   -5.1321 O   0  0  0  0  0  0  0  0  0  0  0  0
   24.9921   75.8575   -6.9928 C   0  0  1  0  0  0  0  0  0  0  0  0
   25.0279   75.9444   -8.5199 C   0  0  1  0  0  0  0  0  0  0  0  0
   24.7909   74.4122   -6.5411 C   0  0  2  0  0  0  0  0  0  0  0  0
   23.8366   75.2060   -9.1449 C   0  0  1  0  0  0  0  0  0  0  0  0
   23.6105   73.7552   -7.2589 C   0  0  1  0  0  0  0  0  0  0  0  0
   26.3752   77.2529   -6.7700 H   0  0  0  0  0  0  0  0  0  0  0  0
   25.7616   77.7765   -8.4826 H   0  0  0  0  0  0  0  0  0  0  0  0
   25.3445   74.8003   -4.6892 H   0  0  0  0  0  0  0  0  0  0  0  0
   24.5786   73.9357  -11.0276 O   0  0  0  0  0  0  0  0  0  0  0  0
   23.9365   75.1450  -10.6675 C   0  0  0  0  0  0  0  0  0  0  0  0
   24.6489   73.8830  -11.9940 H   0  0  0  0  0  0  0  0  0  0  0  0
 25 28  1  0
 25 24  1  0
 25 26  1  1
 25 27  2  0
  1  4  1  0
  1 24  1  0
  1  2  1  1
  1  3  2  0
  6 11  1  0
  6 12  1  0
 29 36  1  0
 29 37  1  0
  9  7  1  1
  7 13  1  0
 10  8  1  1
  8 14  1  0
 37 28  1  1
  4  5  1  0
 33 30  1  1
 30 38  1  0
 34 31  1  1
 31 39  1  0
 35 32  1  1
 32 40  1  0
 41 42  1  0
 41 43  1  0
 15 19  2  0
 16 22  2  0
 12 17  1  6
 17 19  1  0
 17 20  1  0
 18 19  1  0
 18 22  1  0
 18 23  1  0
  9 10  1  0
  9 11  1  0
 10 12  1  0
 11  5  1  6
 33 34  1  0
 33 35  1  0
 34 36  1  0
 35 37  1  0
 36 42  1  6
 20 21  2  0
 21 22  1  0
M  CHG  2   2  -1  26  -1
M  END
>  <COMPND>  (185) 
    8629 

>  <AUTHOR>  (185) 
    GENERATED BY OPEN BABEL 3.1.1

>  <MASTER>  (185) 
        0    0    0    0    0    0    0    0   58    0   58    0

>  <minimizedAffinity>  (185) 
-7.65579

>  <CNNscore>  (185) 
0.4716982245

>  <CNNaffinity>  (185) 
4.3758206367

>  <CNN_VS>  (185) 
2.0640668869

>  <CNNaffinity_variance>  (185) 
0.3132751882

$$$$
186
     RDKit          3D

 43 45  0  0  0  0  0  0  0  0999 V2000
   18.4199   69.3227   -2.4269 P   0  0  2  0  0  0  0  0  0  0  0  0
   17.1857   68.4012   -1.9318 O   0  0  0  0  0  0  0  0  0  0  0  0
   19.6437   68.5668   -2.8538 O   0  0  0  0  0  0  0  0  0  0  0  0
   18.6303   70.3739   -1.2151 O   0  0  0  0  0  0  0  0  0  0  0  0
   17.7603   71.4889   -1.1285 C   0  0  0  0  0  0  0  0  0  0  0  0
   19.7006   72.1192    0.1410 O   0  0  0  0  0  0  0  0  0  0  0  0
   18.3907   74.7974    0.4605 O   0  0  0  0  0  0  0  0  0  0  0  0
   20.2079   75.2571   -1.5201 O   0  0  0  0  0  0  0  0  0  0  0  0
   18.3743   73.9129   -0.6586 C   0  0  1  0  0  0  0  0  0  0  0  0
   19.7097   73.9430   -1.3723 C   0  0  2  0  0  0  0  0  0  0  0  0
   18.3295   72.4854   -0.1279 C   0  0  1  0  0  0  0  0  0  0  0  0
   20.5739   73.0893   -0.4600 C   0  0  2  0  0  0  0  0  0  0  0  0
   18.4189   75.7154    0.1466 H   0  0  0  0  0  0  0  0  0  0  0  0
   19.6240   75.7601   -2.1090 H   0  0  0  0  0  0  0  0  0  0  0  0
   23.0837   72.4043    0.6398 O   0  0  0  0  0  0  0  0  0  0  0  0
   24.4816   70.4553   -3.2958 O   0  0  0  0  0  0  0  0  0  0  0  0
   21.6124   72.4022   -1.1747 N   0  0  0  0  0  0  0  0  0  0  0  0
   23.7776   71.4342   -1.3207 N   0  0  0  0  0  0  0  0  0  0  0  0
   22.8364   72.1065   -0.5306 C   0  0  0  0  0  0  0  0  0  0  0  0
   21.4119   72.0288   -2.4992 C   0  0  0  0  0  0  0  0  0  0  0  0
   22.3201   71.3893   -3.2392 C   0  0  0  0  0  0  0  0  0  0  0  0
   23.6257   71.0429   -2.6415 C   0  0  0  0  0  0  0  0  0  0  0  0
   24.6380   71.2180   -0.8931 H   0  0  0  0  0  0  0  0  0  0  0  0
   17.7528   70.2321   -3.5850 O   0  0  0  0  0  0  0  0  0  0  0  0
   16.3765   70.0540   -4.4138 P   0  0  2  0  0  0  0  0  0  0  0  0
   15.2730   70.7450   -3.4535 O   0  0  0  0  0  0  0  0  0  0  0  0
   16.0657   68.6350   -4.7930 O   0  0  0  0  0  0  0  0  0  0  0  0
   16.5189   71.0646   -5.6641 O   0  0  0  0  0  0  0  0  0  0  0  0
   18.7160   70.6048   -6.4244 O   0  0  0  0  0  0  0  0  0  0  0  0
   17.5357   73.2427   -9.3739 O   0  0  0  0  0  0  0  0  0  0  0  0
   17.7809   70.4476   -9.9867 O   0  0  0  0  0  0  0  0  0  0  0  0
   16.7313   73.6910   -6.6295 O   0  0  0  0  0  0  0  0  0  0  0  0
   17.3586   72.1985   -8.4128 C   0  0  1  0  0  0  0  0  0  0  0  0
   18.2813   71.0378   -8.7902 C   0  0  1  0  0  0  0  0  0  0  0  0
   17.7072   72.7330   -7.0250 C   0  0  2  0  0  0  0  0  0  0  0  0
   18.3471   69.9945   -7.6667 C   0  0  1  0  0  0  0  0  0  0  0  0
   17.7950   71.6081   -5.9920 C   0  0  1  0  0  0  0  0  0  0  0  0
   17.3155   72.9099  -10.2572 H   0  0  0  0  0  0  0  0  0  0  0  0
   17.7439   71.1170  -10.6879 H   0  0  0  0  0  0  0  0  0  0  0  0
   16.6856   74.3979   -7.2913 H   0  0  0  0  0  0  0  0  0  0  0  0
   20.3965   69.4602   -8.7727 O   0  0  0  0  0  0  0  0  0  0  0  0
   19.3813   68.9085   -7.9546 C   0  0  0  0  0  0  0  0  0  0  0  0
   21.0620   68.7803   -8.9639 H   0  0  0  0  0  0  0  0  0  0  0  0
 25 28  1  0
 25 24  1  0
 25 26  1  1
 25 27  2  0
  1  4  1  0
  1 24  1  0
  1  2  1  1
  1  3  2  0
  6 11  1  0
  6 12  1  0
 29 36  1  0
 29 37  1  0
  9  7  1  1
  7 13  1  0
 10  8  1  1
  8 14  1  0
 37 28  1  6
  4  5  1  0
 33 30  1  6
 30 38  1  0
 34 31  1  6
 31 39  1  0
 35 32  1  1
 32 40  1  0
 41 42  1  0
 41 43  1  0
 15 19  2  0
 16 22  2  0
 12 17  1  6
 17 19  1  0
 17 20  1  0
 18 19  1  0
 18 22  1  0
 18 23  1  0
  9 10  1  0
  9 11  1  0
 10 12  1  0
 11  5  1  6
 33 34  1  0
 33 35  1  0
 34 36  1  0
 35 37  1  0
 36 42  1  6
 20 21  2  0
 21 22  1  0
M  CHG  2   2  -1  26  -1
M  END
>  <COMPND>  (186) 
    8629 

>  <AUTHOR>  (186) 
    GENERATED BY OPEN BABEL 3.1.1

>  <MASTER>  (186) 
        0    0    0    0    0    0    0    0   58    0   58    0

>  <minimizedAffinity>  (186) 
-7.90511

>  <CNNscore>  (186) 
0.4437774122

>  <CNNaffinity>  (186) 
4.0952863693

>  <CNN_VS>  (186) 
1.8173955679

>  <CNNaffinity_variance>  (186) 
0.5532603264

$$$$
187
     RDKit          3D

 43 45  0  0  0  0  0  0  0  0999 V2000
   19.5323   69.4771   -4.0621 P   0  0  2  0  0  0  0  0  0  0  0  0
   20.7964   70.4860   -4.0989 O   0  0  0  0  0  0  0  0  0  0  0  0
   19.7482   68.2191   -3.2732 O   0  0  0  0  0  0  0  0  0  0  0  0
   19.1534   69.2721   -5.6217 O   0  0  0  0  0  0  0  0  0  0  0  0
   19.2044   70.3959   -6.4833 C   0  0  0  0  0  0  0  0  0  0  0  0
   16.9369   70.3535   -7.2773 O   0  0  0  0  0  0  0  0  0  0  0  0
   18.0990   70.4815  -10.0384 O   0  0  0  0  0  0  0  0  0  0  0  0
   17.3233   73.0588   -9.5999 O   0  0  0  0  0  0  0  0  0  0  0  0
   18.5537   71.1049   -8.8384 C   0  0  1  0  0  0  0  0  0  0  0  0
   17.6536   72.2679   -8.4765 C   0  0  2  0  0  0  0  0  0  0  0  0
   18.3059   70.1402   -7.6855 C   0  0  1  0  0  0  0  0  0  0  0  0
   16.4467   71.5599   -7.8847 C   0  0  2  0  0  0  0  0  0  0  0  0
   18.2471   71.0787  -10.7890 H   0  0  0  0  0  0  0  0  0  0  0  0
   18.1239   73.4882   -9.9399 H   0  0  0  0  0  0  0  0  0  0  0  0
   14.4214   73.4520   -8.4291 O   0  0  0  0  0  0  0  0  0  0  0  0
   13.9778   74.5321   -3.9706 O   0  0  0  0  0  0  0  0  0  0  0  0
   15.7843   72.3494   -6.8850 N   0  0  0  0  0  0  0  0  0  0  0  0
   14.2020   73.9881   -6.2087 N   0  0  0  0  0  0  0  0  0  0  0  0
   14.7814   73.2720   -7.2639 C   0  0  0  0  0  0  0  0  0  0  0  0
   16.1306   72.2047   -5.5460 C   0  0  0  0  0  0  0  0  0  0  0  0
   15.5694   72.8962   -4.5519 C   0  0  0  0  0  0  0  0  0  0  0  0
   14.5129   73.8808   -4.8624 C   0  0  0  0  0  0  0  0  0  0  0  0
   13.5011   74.6369   -6.4487 H   0  0  0  0  0  0  0  0  0  0  0  0
   18.3341   70.4154   -3.5175 O   0  0  0  0  0  0  0  0  0  0  0  0
   17.4780   70.3558   -2.1476 P   0  0  2  0  0  0  0  0  0  0  0  0
   18.2581   69.2422   -1.2708 O   0  0  0  0  0  0  0  0  0  0  0  0
   16.0167   70.0750   -2.3468 O   0  0  0  0  0  0  0  0  0  0  0  0
   17.7955   71.7540   -1.4063 O   0  0  0  0  0  0  0  0  0  0  0  0
   18.2736   74.0043   -1.9755 O   0  0  0  0  0  0  0  0  0  0  0  0
   21.4295   73.2875    0.5892 O   0  0  0  0  0  0  0  0  0  0  0  0
   19.2689   74.9787    1.4376 O   0  0  0  0  0  0  0  0  0  0  0  0
   20.5431   71.2130   -1.2247 O   0  0  0  0  0  0  0  0  0  0  0  0
   20.0880   73.1668    0.1084 C   0  0  1  0  0  0  0  0  0  0  0  0
   19.4584   74.5610    0.0885 C   0  0  1  0  0  0  0  0  0  0  0  0
   20.1134   72.5682   -1.2968 C   0  0  2  0  0  0  0  0  0  0  0  0
   18.1196   74.5536   -0.6616 C   0  0  1  0  0  0  0  0  0  0  0  0
   18.7437   72.6549   -1.9725 C   0  0  1  0  0  0  0  0  0  0  0  0
   21.4205   73.6665    1.4812 H   0  0  0  0  0  0  0  0  0  0  0  0
   20.1217   74.9786    1.9001 H   0  0  0  0  0  0  0  0  0  0  0  0
   21.4113   71.1716   -0.7954 H   0  0  0  0  0  0  0  0  0  0  0  0
   16.2934   76.0179   -0.1821 O   0  0  0  0  0  0  0  0  0  0  0  0
   17.5507   75.9607   -0.8303 C   0  0  0  0  0  0  0  0  0  0  0  0
   15.9195   76.9079   -0.2809 H   0  0  0  0  0  0  0  0  0  0  0  0
 25 28  1  0
 25 24  1  0
 25 26  1  1
 25 27  2  0
  1  4  1  0
  1 24  1  0
  1  2  1  6
  1  3  2  0
  6 11  1  0
  6 12  1  0
 29 36  1  0
 29 37  1  0
  9  7  1  6
  7 13  1  0
 10  8  1  6
  8 14  1  0
 37 28  1  1
  4  5  1  0
 33 30  1  6
 30 38  1  0
 34 31  1  1
 31 39  1  0
 35 32  1  1
 32 40  1  0
 41 42  1  0
 41 43  1  0
 15 19  2  0
 16 22  2  0
 12 17  1  1
 17 19  1  0
 17 20  1  0
 18 19  1  0
 18 22  1  0
 18 23  1  0
  9 10  1  0
  9 11  1  0
 10 12  1  0
 11  5  1  1
 33 34  1  0
 33 35  1  0
 34 36  1  0
 35 37  1  0
 36 42  1  6
 20 21  2  0
 21 22  1  0
M  CHG  2   2  -1  26  -1
M  END
>  <COMPND>  (187) 
    8629 

>  <AUTHOR>  (187) 
    GENERATED BY OPEN BABEL 3.1.1

>  <MASTER>  (187) 
        0    0    0    0    0    0    0    0   58    0   58    0

>  <minimizedAffinity>  (187) 
-6.95214

>  <CNNscore>  (187) 
0.4174512923

>  <CNNaffinity>  (187) 
4.0498209000

>  <CNN_VS>  (187) 
1.6906030178

>  <CNNaffinity_variance>  (187) 
0.2233261764

$$$$
188
     RDKit          3D

 43 45  0  0  0  0  0  0  0  0999 V2000
   21.2009   71.2342   -1.6307 P   0  0  2  0  0  0  0  0  0  0  0  0
   22.6191   70.8041   -0.9818 O   0  0  0  0  0  0  0  0  0  0  0  0
   20.4021   72.2105   -0.8181 O   0  0  0  0  0  0  0  0  0  0  0  0
   20.4746   69.8234   -1.9470 O   0  0  0  0  0  0  0  0  0  0  0  0
   19.8477   69.6530   -3.2063 C   0  0  0  0  0  0  0  0  0  0  0  0
   17.8355   70.5652   -4.1509 O   0  0  0  0  0  0  0  0  0  0  0  0
   16.3582   68.6457   -2.3835 O   0  0  0  0  0  0  0  0  0  0  0  0
   16.2844   67.3989   -4.8077 O   0  0  0  0  0  0  0  0  0  0  0  0
   17.5987   68.4717   -3.0662 C   0  0  1  0  0  0  0  0  0  0  0  0
   17.3602   68.2778   -4.5491 C   0  0  2  0  0  0  0  0  0  0  0  0
   18.3422   69.8012   -3.0347 C   0  0  1  0  0  0  0  0  0  0  0  0
   17.0793   69.6975   -5.0113 C   0  0  2  0  0  0  0  0  0  0  0  0
   15.8656   67.8095   -2.3902 H   0  0  0  0  0  0  0  0  0  0  0  0
   16.5115   66.5091   -4.4957 H   0  0  0  0  0  0  0  0  0  0  0  0
   15.7206   71.3854   -6.8232 O   0  0  0  0  0  0  0  0  0  0  0  0
   18.7202   70.4777  -10.2025 O   0  0  0  0  0  0  0  0  0  0  0  0
   17.4836   69.9210   -6.3707 N   0  0  0  0  0  0  0  0  0  0  0  0
   17.2154   70.9322   -8.5043 N   0  0  0  0  0  0  0  0  0  0  0  0
   16.7312   70.7871   -7.1980 C   0  0  0  0  0  0  0  0  0  0  0  0
   18.6148   69.2852   -6.8708 C   0  0  0  0  0  0  0  0  0  0  0  0
   19.0626   69.4332   -8.1193 C   0  0  0  0  0  0  0  0  0  0  0  0
   18.3339   70.3208   -9.0484 C   0  0  0  0  0  0  0  0  0  0  0  0
   16.7071   71.5304   -9.0988 H   0  0  0  0  0  0  0  0  0  0  0  0
   21.6191   71.7648   -3.0993 O   0  0  0  0  0  0  0  0  0  0  0  0
   22.6243   72.9459   -3.5548 P   0  0  2  0  0  0  0  0  0  0  0  0
   23.7090   72.1754   -4.4753 O   0  0  0  0  0  0  0  0  0  0  0  0
   23.2188   73.7216   -2.4151 O   0  0  0  0  0  0  0  0  0  0  0  0
   21.7663   73.8347   -4.5933 O   0  0  0  0  0  0  0  0  0  0  0  0
   19.9960   75.3651   -4.2181 O   0  0  0  0  0  0  0  0  0  0  0  0
   18.6665   73.6690   -7.7404 O   0  0  0  0  0  0  0  0  0  0  0  0
   19.6894   76.3525   -7.7564 O   0  0  0  0  0  0  0  0  0  0  0  0
   19.9589   72.0211   -5.7420 O   0  0  0  0  0  0  0  0  0  0  0  0
   19.6433   74.1541   -6.8152 C   0  0  1  0  0  0  0  0  0  0  0  0
   19.3710   75.6387   -6.5650 C   0  0  1  0  0  0  0  0  0  0  0  0
   19.5357   73.3610   -5.5142 C   0  0  2  0  0  0  0  0  0  0  0  0
   20.2045   76.1642   -5.3884 C   0  0  1  0  0  0  0  0  0  0  0  0
   20.3640   73.9958   -4.3956 C   0  0  1  0  0  0  0  0  0  0  0  0
   18.7298   74.1681   -8.5689 H   0  0  0  0  0  0  0  0  0  0  0  0
   19.1567   76.0107   -8.4917 H   0  0  0  0  0  0  0  0  0  0  0  0
   19.4268   71.6303   -6.4519 H   0  0  0  0  0  0  0  0  0  0  0  0
   20.0932   77.7912   -3.6422 O   0  0  0  0  0  0  0  0  0  0  0  0
   19.8336   77.5992   -5.0206 C   0  0  0  0  0  0  0  0  0  0  0  0
   19.8621   78.7004   -3.3938 H   0  0  0  0  0  0  0  0  0  0  0  0
 25 28  1  0
 25 24  1  0
 25 26  1  6
 25 27  2  0
  1  4  1  0
  1 24  1  0
  1  2  1  1
  1  3  2  0
  6 11  1  0
  6 12  1  0
 29 36  1  0
 29 37  1  0
  9  7  1  1
  7 13  1  0
 10  8  1  1
  8 14  1  0
 37 28  1  6
  4  5  1  0
 33 30  1  6
 30 38  1  0
 34 31  1  6
 31 39  1  0
 35 32  1  6
 32 40  1  0
 41 42  1  0
 41 43  1  0
 15 19  2  0
 16 22  2  0
 12 17  1  6
 17 19  1  0
 17 20  1  0
 18 19  1  0
 18 22  1  0
 18 23  1  0
  9 10  1  0
  9 11  1  0
 10 12  1  0
 11  5  1  6
 33 34  1  0
 33 35  1  0
 34 36  1  0
 35 37  1  0
 36 42  1  1
 20 21  2  0
 21 22  1  0
M  CHG  2   2  -1  26  -1
M  END
>  <COMPND>  (188) 
    8629 

>  <AUTHOR>  (188) 
    GENERATED BY OPEN BABEL 3.1.1

>  <MASTER>  (188) 
        0    0    0    0    0    0    0    0   58    0   58    0

>  <minimizedAffinity>  (188) 
-7.16977

>  <CNNscore>  (188) 
0.4172920287

>  <CNNaffinity>  (188) 
4.2089471817

>  <CNN_VS>  (188) 
1.7563600540

>  <CNNaffinity_variance>  (188) 
0.4382013679

$$$$
189
     RDKit          3D

 43 45  0  0  0  0  0  0  0  0999 V2000
   15.9533   72.7789   -5.1680 P   0  0  2  0  0  0  0  0  0  0  0  0
   14.7035   72.3102   -4.2538 O   0  0  0  0  0  0  0  0  0  0  0  0
   15.6911   73.9753   -6.0347 O   0  0  0  0  0  0  0  0  0  0  0  0
   16.3925   71.4301   -5.9464 O   0  0  0  0  0  0  0  0  0  0  0  0
   16.2759   71.3958   -7.3581 C   0  0  0  0  0  0  0  0  0  0  0  0
   18.5818   71.8951   -6.9027 O   0  0  0  0  0  0  0  0  0  0  0  0
   19.1290   71.0455   -9.7257 O   0  0  0  0  0  0  0  0  0  0  0  0
   19.8839   68.8543   -8.2886 O   0  0  0  0  0  0  0  0  0  0  0  0
   18.1865   70.5206   -8.7922 C   0  0  1  0  0  0  0  0  0  0  0  0
   18.8949   69.6986   -7.7357 C   0  0  2  0  0  0  0  0  0  0  0  0
   17.6377   71.6837   -7.9752 C   0  0  1  0  0  0  0  0  0  0  0  0
   19.4805   70.7758   -6.8386 C   0  0  2  0  0  0  0  0  0  0  0  0
   19.4930   70.3212  -10.2594 H   0  0  0  0  0  0  0  0  0  0  0  0
   19.4616   68.1864   -8.8510 H   0  0  0  0  0  0  0  0  0  0  0  0
   20.8349   72.2190   -4.8235 O   0  0  0  0  0  0  0  0  0  0  0  0
   19.8606   69.0377   -1.6344 O   0  0  0  0  0  0  0  0  0  0  0  0
   19.5960   70.3481   -5.4729 N   0  0  0  0  0  0  0  0  0  0  0  0
   20.3485   70.6339   -3.2372 N   0  0  0  0  0  0  0  0  0  0  0  0
   20.2983   71.1461   -4.5400 C   0  0  0  0  0  0  0  0  0  0  0  0
   19.0164   69.1497   -5.0707 C   0  0  0  0  0  0  0  0  0  0  0  0
   19.0744   68.6747   -3.8248 C   0  0  0  0  0  0  0  0  0  0  0  0
   19.7895   69.4476   -2.7888 C   0  0  0  0  0  0  0  0  0  0  0  0
   20.8329   71.1726   -2.5702 H   0  0  0  0  0  0  0  0  0  0  0  0
   17.1394   72.9776   -4.0878 O   0  0  0  0  0  0  0  0  0  0  0  0
   17.1790   72.7118   -2.4939 P   0  0  2  0  0  0  0  0  0  0  0  0
   17.1387   71.0980   -2.3857 O   0  0  0  0  0  0  0  0  0  0  0  0
   16.0948   73.4111   -1.7262 O   0  0  0  0  0  0  0  0  0  0  0  0
   18.6781   73.1127   -2.0500 O   0  0  0  0  0  0  0  0  0  0  0  0
   20.3380   72.2404   -0.6008 O   0  0  0  0  0  0  0  0  0  0  0  0
   20.4543   76.1987    0.5695 O   0  0  0  0  0  0  0  0  0  0  0  0
   22.6159   75.1139   -0.9792 O   0  0  0  0  0  0  0  0  0  0  0  0
   17.9200   74.9577   -0.0760 O   0  0  0  0  0  0  0  0  0  0  0  0
   20.3072   75.1169   -0.3543 C   0  0  1  0  0  0  0  0  0  0  0  0
   21.6096   74.3143   -0.3643 C   0  0  1  0  0  0  0  0  0  0  0  0
   19.1378   74.2389    0.0873 C   0  0  2  0  0  0  0  0  0  0  0  0
   21.4395   72.9918   -1.1241 C   0  0  1  0  0  0  0  0  0  0  0  0
   19.0886   72.9269   -0.6979 C   0  0  1  0  0  0  0  0  0  0  0  0
   21.1949   76.7604    0.2946 H   0  0  0  0  0  0  0  0  0  0  0  0
   22.7130   75.9461   -0.4902 H   0  0  0  0  0  0  0  0  0  0  0  0
   17.9637   75.7859    0.4260 H   0  0  0  0  0  0  0  0  0  0  0  0
   22.2562   70.7677   -0.8155 O   0  0  0  0  0  0  0  0  0  0  0  0
   22.6776   72.1048   -1.0125 C   0  0  0  0  0  0  0  0  0  0  0  0
   23.0338   70.1916   -0.7430 H   0  0  0  0  0  0  0  0  0  0  0  0
 25 28  1  0
 25 24  1  0
 25 26  1  6
 25 27  2  0
  1  4  1  0
  1 24  1  0
  1  2  1  1
  1  3  2  0
  6 11  1  0
  6 12  1  0
 29 36  1  0
 29 37  1  0
  9  7  1  6
  7 13  1  0
 10  8  1  6
  8 14  1  0
 37 28  1  6
  4  5  1  0
 33 30  1  1
 30 38  1  0
 34 31  1  6
 31 39  1  0
 35 32  1  6
 32 40  1  0
 41 42  1  0
 41 43  1  0
 15 19  2  0
 16 22  2  0
 12 17  1  1
 17 19  1  0
 17 20  1  0
 18 19  1  0
 18 22  1  0
 18 23  1  0
  9 10  1  0
  9 11  1  0
 10 12  1  0
 11  5  1  1
 33 34  1  0
 33 35  1  0
 34 36  1  0
 35 37  1  0
 36 42  1  1
 20 21  2  0
 21 22  1  0
M  CHG  2   2  -1  26  -1
M  END
>  <COMPND>  (189) 
    8629 

>  <AUTHOR>  (189) 
    GENERATED BY OPEN BABEL 3.1.1

>  <MASTER>  (189) 
        0    0    0    0    0    0    0    0   58    0   58    0

>  <minimizedAffinity>  (189) 
-6.55970

>  <CNNscore>  (189) 
0.4161889851

>  <CNNaffinity>  (189) 
3.9968941212

>  <CNN_VS>  (189) 
1.6634633541

>  <CNNaffinity_variance>  (189) 
0.6829779744

$$$$
190
     RDKit          3D

 43 45  0  0  0  0  0  0  0  0999 V2000
   20.4972   70.6221   -1.3980 P   0  0  2  0  0  0  0  0  0  0  0  0
   21.4890   70.5137   -2.6716 O   0  0  0  0  0  0  0  0  0  0  0  0
   20.0024   69.3090   -0.8665 O   0  0  0  0  0  0  0  0  0  0  0  0
   19.3541   71.6594   -1.8831 O   0  0  0  0  0  0  0  0  0  0  0  0
   18.9114   71.5974   -3.2277 C   0  0  0  0  0  0  0  0  0  0  0  0
   16.9159   71.5408   -4.5650 O   0  0  0  0  0  0  0  0  0  0  0  0
   15.8187   69.6498   -2.5129 O   0  0  0  0  0  0  0  0  0  0  0  0
   16.5652   67.9716   -4.5286 O   0  0  0  0  0  0  0  0  0  0  0  0
   17.1522   69.7729   -3.0047 C   0  0  1  0  0  0  0  0  0  0  0  0
   17.2518   69.2003   -4.4032 C   0  0  2  0  0  0  0  0  0  0  0  0
   17.4287   71.2516   -3.2460 C   0  0  1  0  0  0  0  0  0  0  0  0
   16.6308   70.3052   -5.2410 C   0  0  2  0  0  0  0  0  0  0  0  0
   15.6191   68.7139   -2.3509 H   0  0  0  0  0  0  0  0  0  0  0  0
   16.9981   67.3014   -3.9772 H   0  0  0  0  0  0  0  0  0  0  0  0
   15.3831   71.5787   -7.4317 O   0  0  0  0  0  0  0  0  0  0  0  0
   18.8277   70.4569  -10.2809 O   0  0  0  0  0  0  0  0  0  0  0  0
   17.1795   70.3615   -6.5666 N   0  0  0  0  0  0  0  0  0  0  0  0
   17.0993   71.0193   -8.8485 N   0  0  0  0  0  0  0  0  0  0  0  0
   16.4722   71.0251   -7.5961 C   0  0  0  0  0  0  0  0  0  0  0  0
   18.4059   69.7634   -6.8349 C   0  0  0  0  0  0  0  0  0  0  0  0
   18.9898   69.7656   -8.0351 C   0  0  0  0  0  0  0  0  0  0  0  0
   18.3167   70.4376   -9.1653 C   0  0  0  0  0  0  0  0  0  0  0  0
   16.6248   71.4753   -9.5811 H   0  0  0  0  0  0  0  0  0  0  0  0
   21.3554   71.4948   -0.3422 O   0  0  0  0  0  0  0  0  0  0  0  0
   21.4491   73.0922   -0.1136 P   0  0  2  0  0  0  0  0  0  0  0  0
   22.8259   73.2680    0.7178 O   0  0  0  0  0  0  0  0  0  0  0  0
   20.2434   73.6905    0.5516 O   0  0  0  0  0  0  0  0  0  0  0  0
   21.7754   73.6956   -1.5746 O   0  0  0  0  0  0  0  0  0  0  0  0
   23.3145   73.1312   -3.2860 O   0  0  0  0  0  0  0  0  0  0  0  0
   23.7207   77.2397   -3.3619 O   0  0  0  0  0  0  0  0  0  0  0  0
   22.3414   75.9114   -5.5023 O   0  0  0  0  0  0  0  0  0  0  0  0
   23.3904   75.8679   -0.8344 O   0  0  0  0  0  0  0  0  0  0  0  0
   23.0198   76.0023   -3.2105 C   0  0  1  0  0  0  0  0  0  0  0  0
   23.1232   75.2285   -4.5263 C   0  0  1  0  0  0  0  0  0  0  0  0
   23.6507   75.2078   -2.0685 C   0  0  2  0  0  0  0  0  0  0  0  0
   22.6291   73.7851   -4.3604 C   0  0  1  0  0  0  0  0  0  0  0  0
   23.1262   73.7715   -2.0225 C   0  0  1  0  0  0  0  0  0  0  0  0
   23.3248   77.7493   -4.0852 H   0  0  0  0  0  0  0  0  0  0  0  0
   22.6634   76.8217   -5.5971 H   0  0  0  0  0  0  0  0  0  0  0  0
   23.7274   76.7759   -0.8762 H   0  0  0  0  0  0  0  0  0  0  0  0
   24.0897   73.3631   -6.2036 O   0  0  0  0  0  0  0  0  0  0  0  0
   22.8694   72.9504   -5.6164 C   0  0  0  0  0  0  0  0  0  0  0  0
   24.2558   72.8401   -7.0040 H   0  0  0  0  0  0  0  0  0  0  0  0
 25 28  1  0
 25 24  1  0
 25 26  1  1
 25 27  2  0
  1  4  1  0
  1 24  1  0
  1  2  1  6
  1  3  2  0
  6 11  1  0
  6 12  1  0
 29 36  1  0
 29 37  1  0
  9  7  1  6
  7 13  1  0
 10  8  1  1
  8 14  1  0
 37 28  1  6
  4  5  1  0
 33 30  1  6
 30 38  1  0
 34 31  1  6
 31 39  1  0
 35 32  1  1
 32 40  1  0
 41 42  1  0
 41 43  1  0
 15 19  2  0
 16 22  2  0
 12 17  1  6
 17 19  1  0
 17 20  1  0
 18 19  1  0
 18 22  1  0
 18 23  1  0
  9 10  1  0
  9 11  1  0
 10 12  1  0
 11  5  1  6
 33 34  1  0
 33 35  1  0
 34 36  1  0
 35 37  1  0
 36 42  1  6
 20 21  2  0
 21 22  1  0
M  CHG  2   2  -1  26  -1
M  END
>  <COMPND>  (190) 
    8629 

>  <AUTHOR>  (190) 
    GENERATED BY OPEN BABEL 3.1.1

>  <MASTER>  (190) 
        0    0    0    0    0    0    0    0   58    0   58    0

>  <minimizedAffinity>  (190) 
-7.57572

>  <CNNscore>  (190) 
0.3901752830

>  <CNNaffinity>  (190) 
4.3339481354

>  <CNN_VS>  (190) 
1.6909993887

>  <CNNaffinity_variance>  (190) 
0.1271545589

$$$$
191
     RDKit          3D

 43 45  0  0  0  0  0  0  0  0999 V2000
   16.1513   70.4710   -2.4654 P   0  0  2  0  0  0  0  0  0  0  0  0
   15.4421   71.0604   -3.7947 O   0  0  0  0  0  0  0  0  0  0  0  0
   15.4682   69.2817   -1.8569 O   0  0  0  0  0  0  0  0  0  0  0  0
   16.3049   71.7620   -1.5023 O   0  0  0  0  0  0  0  0  0  0  0  0
   17.5122   72.5022   -1.5511 C   0  0  0  0  0  0  0  0  0  0  0  0
   19.1850   71.9512    0.0835 O   0  0  0  0  0  0  0  0  0  0  0  0
   18.3293   74.4383    1.5234 O   0  0  0  0  0  0  0  0  0  0  0  0
   20.6081   75.2387    0.2572 O   0  0  0  0  0  0  0  0  0  0  0  0
   18.4174   74.1929    0.1207 C   0  0  1  0  0  0  0  0  0  0  0  0
   19.8658   74.1848   -0.3217 C   0  0  2  0  0  0  0  0  0  0  0  0
   18.0001   72.7492   -0.1302 C   0  0  1  0  0  0  0  0  0  0  0  0
   20.3306   72.8163    0.1465 C   0  0  2  0  0  0  0  0  0  0  0  0
   18.5908   75.3545    1.7082 H   0  0  0  0  0  0  0  0  0  0  0  0
   20.2747   76.0880   -0.0718 H   0  0  0  0  0  0  0  0  0  0  0  0
   23.0932   73.2057    0.5877 O   0  0  0  0  0  0  0  0  0  0  0  0
   24.2236   70.6985   -3.1106 O   0  0  0  0  0  0  0  0  0  0  0  0
   21.3689   72.2764   -0.6853 N   0  0  0  0  0  0  0  0  0  0  0  0
   23.6538   71.9568   -1.2540 N   0  0  0  0  0  0  0  0  0  0  0  0
   22.7254   72.5319   -0.3769 C   0  0  0  0  0  0  0  0  0  0  0  0
   21.0379   71.5028   -1.7925 C   0  0  0  0  0  0  0  0  0  0  0  0
   21.9352   70.9627   -2.6197 C   0  0  0  0  0  0  0  0  0  0  0  0
   23.3743   71.1816   -2.3683 C   0  0  0  0  0  0  0  0  0  0  0  0
   24.6049   72.1217   -1.0592 H   0  0  0  0  0  0  0  0  0  0  0  0
   17.6683   70.1990   -2.9530 O   0  0  0  0  0  0  0  0  0  0  0  0
   18.2481   69.3116   -4.1734 P   0  0  2  0  0  0  0  0  0  0  0  0
   17.0943   68.2016   -4.4059 O   0  0  0  0  0  0  0  0  0  0  0  0
   19.6146   68.7418   -3.9250 O   0  0  0  0  0  0  0  0  0  0  0  0
   18.1504   70.2773   -5.4630 O   0  0  0  0  0  0  0  0  0  0  0  0
   16.2603   70.5676   -6.8630 O   0  0  0  0  0  0  0  0  0  0  0  0
   19.2452   71.2224   -9.6401 O   0  0  0  0  0  0  0  0  0  0  0  0
   17.6753   73.4349   -8.6974 O   0  0  0  0  0  0  0  0  0  0  0  0
   19.5796   69.1812   -7.6150 O   0  0  0  0  0  0  0  0  0  0  0  0
   18.6341   71.2717   -8.3480 C   0  0  1  0  0  0  0  0  0  0  0  0
   17.3348   72.0714   -8.4622 C   0  0  1  0  0  0  0  0  0  0  0  0
   18.3488   69.8471   -7.8761 C   0  0  2  0  0  0  0  0  0  0  0  0
   16.4917   71.9437   -7.1862 C   0  0  1  0  0  0  0  0  0  0  0  0
   17.4628   69.8319   -6.6292 C   0  0  1  0  0  0  0  0  0  0  0  0
   19.4294   72.1238   -9.9453 H   0  0  0  0  0  0  0  0  0  0  0  0
   18.2079   73.5016   -9.5056 H   0  0  0  0  0  0  0  0  0  0  0  0
   20.1313   69.1974   -8.4119 H   0  0  0  0  0  0  0  0  0  0  0  0
   14.7614   72.5806   -8.7058 O   0  0  0  0  0  0  0  0  0  0  0  0
   15.1225   72.6029   -7.3371 C   0  0  0  0  0  0  0  0  0  0  0  0
   13.8918   72.9967   -8.8170 H   0  0  0  0  0  0  0  0  0  0  0  0
 25 28  1  0
 25 24  1  0
 25 26  1  6
 25 27  2  0
  1  4  1  0
  1 24  1  0
  1  2  1  6
  1  3  2  0
  6 11  1  0
  6 12  1  0
 29 36  1  0
 29 37  1  0
  9  7  1  1
  7 13  1  0
 10  8  1  1
  8 14  1  0
 37 28  1  1
  4  5  1  0
 33 30  1  6
 30 38  1  0
 34 31  1  1
 31 39  1  0
 35 32  1  1
 32 40  1  0
 41 42  1  0
 41 43  1  0
 15 19  2  0
 16 22  2  0
 12 17  1  6
 17 19  1  0
 17 20  1  0
 18 19  1  0
 18 22  1  0
 18 23  1  0
  9 10  1  0
  9 11  1  0
 10 12  1  0
 11  5  1  6
 33 34  1  0
 33 35  1  0
 34 36  1  0
 35 37  1  0
 36 42  1  6
 20 21  2  0
 21 22  1  0
M  CHG  2   2  -1  26  -1
M  END
>  <COMPND>  (191) 
    8629 

>  <AUTHOR>  (191) 
    GENERATED BY OPEN BABEL 3.1.1

>  <MASTER>  (191) 
        0    0    0    0    0    0    0    0   58    0   58    0

>  <minimizedAffinity>  (191) 
-7.79653

>  <CNNscore>  (191) 
0.3874831200

>  <CNNaffinity>  (191) 
3.9587943554

>  <CNN_VS>  (191) 
1.5339659452

>  <CNNaffinity_variance>  (191) 
0.4946869910

$$$$
192
     RDKit          3D

 43 45  0  0  0  0  0  0  0  0999 V2000
   22.4384   71.2759   -2.2122 P   0  0  2  0  0  0  0  0  0  0  0  0
   23.7838   70.6209   -2.8273 O   0  0  0  0  0  0  0  0  0  0  0  0
   22.0161   70.7250   -0.8820 O   0  0  0  0  0  0  0  0  0  0  0  0
   21.3563   71.1345   -3.4068 O   0  0  0  0  0  0  0  0  0  0  0  0
   20.6539   69.9113   -3.5415 C   0  0  0  0  0  0  0  0  0  0  0  0
   18.5622   70.8438   -4.2687 O   0  0  0  0  0  0  0  0  0  0  0  0
   17.2799   69.1150   -2.1811 O   0  0  0  0  0  0  0  0  0  0  0  0
   16.8291   67.7107   -4.4748 O   0  0  0  0  0  0  0  0  0  0  0  0
   18.4074   68.8412   -3.0112 C   0  0  1  0  0  0  0  0  0  0  0  0
   17.9594   68.5575   -4.4298 C   0  0  2  0  0  0  0  0  0  0  0  0
   19.1925   70.1362   -3.1786 C   0  0  1  0  0  0  0  0  0  0  0  0
   17.6653   69.9534   -4.9525 C   0  0  2  0  0  0  0  0  0  0  0  0
   16.7632   68.3025   -2.0595 H   0  0  0  0  0  0  0  0  0  0  0  0
   17.0671   66.8351   -4.1322 H   0  0  0  0  0  0  0  0  0  0  0  0
   15.9339   71.2977   -6.7337 O   0  0  0  0  0  0  0  0  0  0  0  0
   18.6071   70.3206  -10.3587 O   0  0  0  0  0  0  0  0  0  0  0  0
   17.8847   70.0661   -6.3669 N   0  0  0  0  0  0  0  0  0  0  0  0
   17.2665   70.8102   -8.5372 N   0  0  0  0  0  0  0  0  0  0  0  0
   16.9535   70.7617   -7.1728 C   0  0  0  0  0  0  0  0  0  0  0  0
   19.0132   69.4910   -6.9411 C   0  0  0  0  0  0  0  0  0  0  0  0
   19.2964   69.5452   -8.2442 C   0  0  0  0  0  0  0  0  0  0  0  0
   18.3746   70.2533   -9.1557 C   0  0  0  0  0  0  0  0  0  0  0  0
   16.6318   71.2893   -9.1182 H   0  0  0  0  0  0  0  0  0  0  0  0
   22.7724   72.8575   -2.2100 O   0  0  0  0  0  0  0  0  0  0  0  0
   21.8243   74.1431   -2.4576 P   0  0  2  0  0  0  0  0  0  0  0  0
   22.4801   75.2764   -1.5073 O   0  0  0  0  0  0  0  0  0  0  0  0
   20.3663   73.8903   -2.2043 O   0  0  0  0  0  0  0  0  0  0  0  0
   22.1691   74.6215   -3.9601 O   0  0  0  0  0  0  0  0  0  0  0  0
   20.7930   74.6853   -5.8885 O   0  0  0  0  0  0  0  0  0  0  0  0
   24.3706   73.6386   -7.6651 O   0  0  0  0  0  0  0  0  0  0  0  0
   23.3322   76.2921   -8.0238 O   0  0  0  0  0  0  0  0  0  0  0  0
   23.6585   72.5279   -5.0885 O   0  0  0  0  0  0  0  0  0  0  0  0
   23.5329   74.3010   -6.7138 C   0  0  1  0  0  0  0  0  0  0  0  0
   22.5737   75.2176   -7.4758 C   0  0  1  0  0  0  0  0  0  0  0  0
   22.7570   73.2536   -5.9173 C   0  0  2  0  0  0  0  0  0  0  0  0
   21.4725   75.7570   -6.5530 C   0  0  1  0  0  0  0  0  0  0  0  0
   21.6541   73.8911   -5.0703 C   0  0  1  0  0  0  0  0  0  0  0  0
   24.8664   74.2980   -8.1738 H   0  0  0  0  0  0  0  0  0  0  0  0
   24.0244   75.9379   -8.6041 H   0  0  0  0  0  0  0  0  0  0  0  0
   24.3516   72.1290   -5.6365 H   0  0  0  0  0  0  0  0  0  0  0  0
   19.2985   75.7040   -7.5428 O   0  0  0  0  0  0  0  0  0  0  0  0
   20.4158   76.5454   -7.3237 C   0  0  0  0  0  0  0  0  0  0  0  0
   18.6176   76.1926   -8.0321 H   0  0  0  0  0  0  0  0  0  0  0  0
 25 28  1  0
 25 24  1  0
 25 26  1  1
 25 27  2  0
  1  4  1  0
  1 24  1  0
  1  2  1  6
  1  3  2  0
  6 11  1  0
  6 12  1  0
 29 36  1  0
 29 37  1  0
  9  7  1  1
  7 13  1  0
 10  8  1  1
  8 14  1  0
 37 28  1  1
  4  5  1  0
 33 30  1  6
 30 38  1  0
 34 31  1  1
 31 39  1  0
 35 32  1  1
 32 40  1  0
 41 42  1  0
 41 43  1  0
 15 19  2  0
 16 22  2  0
 12 17  1  6
 17 19  1  0
 17 20  1  0
 18 19  1  0
 18 22  1  0
 18 23  1  0
  9 10  1  0
  9 11  1  0
 10 12  1  0
 11  5  1  6
 33 34  1  0
 33 35  1  0
 34 36  1  0
 35 37  1  0
 36 42  1  6
 20 21  2  0
 21 22  1  0
M  CHG  2   2  -1  26  -1
M  END
>  <COMPND>  (192) 
    8629 

>  <AUTHOR>  (192) 
    GENERATED BY OPEN BABEL 3.1.1

>  <MASTER>  (192) 
        0    0    0    0    0    0    0    0   58    0   58    0

>  <minimizedAffinity>  (192) 
-7.87948

>  <CNNscore>  (192) 
0.3739747703

>  <CNNaffinity>  (192) 
4.1941370964

>  <CNN_VS>  (192) 
1.5685014725

>  <CNNaffinity_variance>  (192) 
0.5927014947

$$$$
193
     RDKit          3D

 43 45  0  0  0  0  0  0  0  0999 V2000
   18.1439   71.3756   -2.2265 P   0  0  2  0  0  0  0  0  0  0  0  0
   16.7492   72.1810   -2.3795 O   0  0  0  0  0  0  0  0  0  0  0  0
   18.1211   70.2518   -1.2325 O   0  0  0  0  0  0  0  0  0  0  0  0
   19.2350   72.5376   -1.9485 O   0  0  0  0  0  0  0  0  0  0  0  0
   19.6212   72.7961   -0.6099 C   0  0  0  0  0  0  0  0  0  0  0  0
   21.5883   71.8905   -1.6512 O   0  0  0  0  0  0  0  0  0  0  0  0
   22.9757   72.3985    0.9580 O   0  0  0  0  0  0  0  0  0  0  0  0
   23.7962   74.5022   -0.5710 O   0  0  0  0  0  0  0  0  0  0  0  0
   21.9644   73.1677    0.3092 C   0  0  1  0  0  0  0  0  0  0  0  0
   22.5479   73.9130   -0.8730 C   0  0  2  0  0  0  0  0  0  0  0  0
   21.0015   72.2006   -0.3683 C   0  0  1  0  0  0  0  0  0  0  0  0
   22.6574   72.8135   -1.9158 C   0  0  2  0  0  0  0  0  0  0  0  0
   23.6025   72.9946    1.3982 H   0  0  0  0  0  0  0  0  0  0  0  0
   23.6737   75.1951    0.0966 H   0  0  0  0  0  0  0  0  0  0  0  0
   23.8435   71.6289   -4.1890 O   0  0  0  0  0  0  0  0  0  0  0  0
   22.0687   74.8180   -7.0035 O   0  0  0  0  0  0  0  0  0  0  0  0
   22.5215   73.3131   -3.2549 N   0  0  0  0  0  0  0  0  0  0  0  0
   22.9587   73.2177   -5.5886 N   0  0  0  0  0  0  0  0  0  0  0  0
   23.1585   72.6446   -4.3262 C   0  0  0  0  0  0  0  0  0  0  0  0
   21.7630   74.4536   -3.4953 C   0  0  0  0  0  0  0  0  0  0  0  0
   21.5833   74.9882   -4.7050 C   0  0  0  0  0  0  0  0  0  0  0  0
   22.2149   74.3506   -5.8783 C   0  0  0  0  0  0  0  0  0  0  0  0
   23.3933   72.7692   -6.3500 H   0  0  0  0  0  0  0  0  0  0  0  0
   18.4718   70.9249   -3.7439 O   0  0  0  0  0  0  0  0  0  0  0  0
   19.3811   69.7192   -4.3202 P   0  0  2  0  0  0  0  0  0  0  0  0
   18.4305   68.4217   -4.1463 O   0  0  0  0  0  0  0  0  0  0  0  0
   20.7255   69.5944   -3.6637 O   0  0  0  0  0  0  0  0  0  0  0  0
   19.4357   69.9740   -5.9130 O   0  0  0  0  0  0  0  0  0  0  0  0
   17.1622   70.2963   -6.4996 O   0  0  0  0  0  0  0  0  0  0  0  0
   18.8930   70.9274  -10.1951 O   0  0  0  0  0  0  0  0  0  0  0  0
   17.8238   73.1549   -8.7311 O   0  0  0  0  0  0  0  0  0  0  0  0
   19.9355   68.8712   -8.4446 O   0  0  0  0  0  0  0  0  0  0  0  0
   18.8132   70.9776   -8.7681 C   0  0  1  0  0  0  0  0  0  0  0  0
   17.5776   71.7947   -8.3853 C   0  0  1  0  0  0  0  0  0  0  0  0
   18.7063   69.5543   -8.2238 C   0  0  2  0  0  0  0  0  0  0  0  0
   17.2744   71.6711   -6.8860 C   0  0  1  0  0  0  0  0  0  0  0  0
   18.3539   69.5439   -6.7352 C   0  0  1  0  0  0  0  0  0  0  0  0
   18.9615   71.8280  -10.5471 H   0  0  0  0  0  0  0  0  0  0  0  0
   18.0144   73.2191   -9.6802 H   0  0  0  0  0  0  0  0  0  0  0  0
   20.1473   68.8845   -9.3906 H   0  0  0  0  0  0  0  0  0  0  0  0
   15.3571   71.6128   -5.4614 O   0  0  0  0  0  0  0  0  0  0  0  0
   15.9583   72.3487   -6.5109 C   0  0  0  0  0  0  0  0  0  0  0  0
   14.5185   72.0327   -5.2120 H   0  0  0  0  0  0  0  0  0  0  0  0
 25 28  1  0
 25 24  1  0
 25 26  1  6
 25 27  2  0
  1  4  1  0
  1 24  1  0
  1  2  1  6
  1  3  2  0
  6 11  1  0
  6 12  1  0
 29 36  1  0
 29 37  1  0
  9  7  1  6
  7 13  1  0
 10  8  1  1
  8 14  1  0
 37 28  1  1
  4  5  1  0
 33 30  1  6
 30 38  1  0
 34 31  1  1
 31 39  1  0
 35 32  1  1
 32 40  1  0
 41 42  1  0
 41 43  1  0
 15 19  2  0
 16 22  2  0
 12 17  1  6
 17 19  1  0
 17 20  1  0
 18 19  1  0
 18 22  1  0
 18 23  1  0
  9 10  1  0
  9 11  1  0
 10 12  1  0
 11  5  1  6
 33 34  1  0
 33 35  1  0
 34 36  1  0
 35 37  1  0
 36 42  1  6
 20 21  2  0
 21 22  1  0
M  CHG  2   2  -1  26  -1
M  END
>  <COMPND>  (193) 
    8629 

>  <AUTHOR>  (193) 
    GENERATED BY OPEN BABEL 3.1.1

>  <MASTER>  (193) 
        0    0    0    0    0    0    0    0   58    0   58    0

>  <minimizedAffinity>  (193) 
-7.86730

>  <CNNscore>  (193) 
0.3433539569

>  <CNNaffinity>  (193) 
3.9765515327

>  <CNN_VS>  (193) 
1.3653646708

>  <CNNaffinity_variance>  (193) 
0.5307692289

$$$$
194
     RDKit          3D

 43 45  0  0  0  0  0  0  0  0999 V2000
   18.3219   68.8599   -3.9172 P   0  0  2  0  0  0  0  0  0  0  0  0
   19.9308   68.8609   -3.7470 O   0  0  0  0  0  0  0  0  0  0  0  0
   17.6067   67.7700   -3.1742 O   0  0  0  0  0  0  0  0  0  0  0  0
   18.1008   68.8799   -5.5199 O   0  0  0  0  0  0  0  0  0  0  0  0
   18.4476   70.0525   -6.2357 C   0  0  0  0  0  0  0  0  0  0  0  0
   16.3582   70.3769   -7.3771 O   0  0  0  0  0  0  0  0  0  0  0  0
   17.9823   70.6341   -9.8845 O   0  0  0  0  0  0  0  0  0  0  0  0
   17.4258   73.2315   -9.2677 O   0  0  0  0  0  0  0  0  0  0  0  0
   18.2896   71.0712   -8.5617 C   0  0  1  0  0  0  0  0  0  0  0  0
   17.4718   72.2962   -8.2094 C   0  0  2  0  0  0  0  0  0  0  0  0
   17.7457   70.0345   -7.5867 C   0  0  1  0  0  0  0  0  0  0  0  0
   16.1121   71.6906   -7.9050 C   0  0  2  0  0  0  0  0  0  0  0  0
   18.3202   71.2802  -10.5250 H   0  0  0  0  0  0  0  0  0  0  0  0
   18.3143   73.5882   -9.4229 H   0  0  0  0  0  0  0  0  0  0  0  0
   14.2986   73.7599   -8.5426 O   0  0  0  0  0  0  0  0  0  0  0  0
   13.3522   74.5478   -4.1013 O   0  0  0  0  0  0  0  0  0  0  0  0
   15.3777   72.4529   -6.9351 N   0  0  0  0  0  0  0  0  0  0  0  0
   13.8287   74.1504   -6.3307 N   0  0  0  0  0  0  0  0  0  0  0  0
   14.4928   73.4711   -7.3600 C   0  0  0  0  0  0  0  0  0  0  0  0
   15.5382   72.1877   -5.5794 C   0  0  0  0  0  0  0  0  0  0  0  0
   14.8984   72.8455   -4.6102 C   0  0  0  0  0  0  0  0  0  0  0  0
   13.9556   73.9245   -4.9692 C   0  0  0  0  0  0  0  0  0  0  0  0
   13.2074   74.8643   -6.6029 H   0  0  0  0  0  0  0  0  0  0  0  0
   17.9087   70.3588   -3.4747 O   0  0  0  0  0  0  0  0  0  0  0  0
   18.0471   71.1233   -2.0573 P   0  0  2  0  0  0  0  0  0  0  0  0
   18.2931   69.9171   -1.0075 O   0  0  0  0  0  0  0  0  0  0  0  0
   16.8833   72.0099   -1.7202 O   0  0  0  0  0  0  0  0  0  0  0  0
   19.4668   71.8863   -2.1416 O   0  0  0  0  0  0  0  0  0  0  0  0
   21.6879   71.0645   -2.0527 O   0  0  0  0  0  0  0  0  0  0  0  0
   22.1909   74.5585    0.0898 O   0  0  0  0  0  0  0  0  0  0  0  0
   23.2552   74.3607   -2.5703 O   0  0  0  0  0  0  0  0  0  0  0  0
   19.7734   73.0000    0.4159 O   0  0  0  0  0  0  0  0  0  0  0  0
   21.6350   73.7240   -0.9300 C   0  0  1  0  0  0  0  0  0  0  0  0
   22.7749   73.2422   -1.8296 C   0  0  1  0  0  0  0  0  0  0  0  0
   20.9292   72.5382   -0.2749 C   0  0  2  0  0  0  0  0  0  0  0  0
   22.3000   72.1355   -2.7808 C   0  0  1  0  0  0  0  0  0  0  0  0
   20.5423   71.4732   -1.3026 C   0  0  1  0  0  0  0  0  0  0  0  0
   22.6402   75.3136   -0.3194 H   0  0  0  0  0  0  0  0  0  0  0  0
   23.5515   75.0524   -1.9580 H   0  0  0  0  0  0  0  0  0  0  0  0
   20.0316   73.6735    1.0637 H   0  0  0  0  0  0  0  0  0  0  0  0
   23.6743   72.3284   -4.7258 O   0  0  0  0  0  0  0  0  0  0  0  0
   23.4546   71.5310   -3.5767 C   0  0  0  0  0  0  0  0  0  0  0  0
   24.4068   71.9558   -5.2419 H   0  0  0  0  0  0  0  0  0  0  0  0
 25 28  1  0
 25 24  1  0
 25 26  1  1
 25 27  2  0
  1  4  1  0
  1 24  1  0
  1  2  1  6
  1  3  2  0
  6 11  1  0
  6 12  1  0
 29 36  1  0
 29 37  1  0
  9  7  1  6
  7 13  1  0
 10  8  1  6
  8 14  1  0
 37 28  1  6
  4  5  1  0
 33 30  1  1
 30 38  1  0
 34 31  1  6
 31 39  1  0
 35 32  1  6
 32 40  1  0
 41 42  1  0
 41 43  1  0
 15 19  2  0
 16 22  2  0
 12 17  1  1
 17 19  1  0
 17 20  1  0
 18 19  1  0
 18 22  1  0
 18 23  1  0
  9 10  1  0
  9 11  1  0
 10 12  1  0
 11  5  1  1
 33 34  1  0
 33 35  1  0
 34 36  1  0
 35 37  1  0
 36 42  1  1
 20 21  2  0
 21 22  1  0
M  CHG  2   2  -1  26  -1
M  END
>  <COMPND>  (194) 
    8629 

>  <AUTHOR>  (194) 
    GENERATED BY OPEN BABEL 3.1.1

>  <MASTER>  (194) 
        0    0    0    0    0    0    0    0   58    0   58    0

>  <minimizedAffinity>  (194) 
-7.56162

>  <CNNscore>  (194) 
0.3424886465

>  <CNNaffinity>  (194) 
4.0881280899

>  <CNN_VS>  (194) 
1.4001374245

>  <CNNaffinity_variance>  (194) 
0.1453858316

$$$$
195
     RDKit          3D

 43 45  0  0  0  0  0  0  0  0999 V2000
   17.9994   71.2681   -2.3064 P   0  0  2  0  0  0  0  0  0  0  0  0
   17.0972   72.5885   -2.5513 O   0  0  0  0  0  0  0  0  0  0  0  0
   17.2787   70.1176   -1.6674 O   0  0  0  0  0  0  0  0  0  0  0  0
   19.2895   71.8228   -1.5027 O   0  0  0  0  0  0  0  0  0  0  0  0
   20.0348   72.8854   -2.0712 C   0  0  0  0  0  0  0  0  0  0  0  0
   22.2649   73.7772   -1.9994 O   0  0  0  0  0  0  0  0  0  0  0  0
   23.1094   71.0819   -0.9931 O   0  0  0  0  0  0  0  0  0  0  0  0
   23.0245   72.5694    1.2910 O   0  0  0  0  0  0  0  0  0  0  0  0
   21.9094   71.8075   -0.7307 C   0  0  1  0  0  0  0  0  0  0  0  0
   22.1849   72.9528    0.2211 C   0  0  2  0  0  0  0  0  0  0  0  0
   21.5166   72.5417   -2.0067 C   0  0  1  0  0  0  0  0  0  0  0  0
   22.8357   73.9747   -0.6956 C   0  0  2  0  0  0  0  0  0  0  0  0
   23.3799   70.6044   -0.1926 H   0  0  0  0  0  0  0  0  0  0  0  0
   22.5658   71.9187    1.8450 H   0  0  0  0  0  0  0  0  0  0  0  0
   24.3985   75.3750    1.1952 O   0  0  0  0  0  0  0  0  0  0  0  0
   21.7787   79.1499    0.8373 O   0  0  0  0  0  0  0  0  0  0  0  0
   22.5849   75.3248   -0.2763 N   0  0  0  0  0  0  0  0  0  0  0  0
   23.0929   77.2535    1.0153 N   0  0  0  0  0  0  0  0  0  0  0  0
   23.4292   75.9358    0.6798 C   0  0  0  0  0  0  0  0  0  0  0  0
   21.5119   76.0287   -0.8121 C   0  0  0  0  0  0  0  0  0  0  0  0
   21.2039   77.2843   -0.4806 C   0  0  0  0  0  0  0  0  0  0  0  0
   22.0360   77.9951    0.5116 C   0  0  0  0  0  0  0  0  0  0  0  0
   23.6669   77.6993    1.6798 H   0  0  0  0  0  0  0  0  0  0  0  0
   18.5940   70.9563   -3.7769 O   0  0  0  0  0  0  0  0  0  0  0  0
   19.4743   69.7163   -4.3250 P   0  0  2  0  0  0  0  0  0  0  0  0
   18.4977   68.4444   -4.1101 O   0  0  0  0  0  0  0  0  0  0  0  0
   20.8198   69.5811   -3.6729 O   0  0  0  0  0  0  0  0  0  0  0  0
   19.5242   69.9263   -5.9245 O   0  0  0  0  0  0  0  0  0  0  0  0
   17.2402   70.2080   -6.4906 O   0  0  0  0  0  0  0  0  0  0  0  0
   18.9233   70.8298  -10.2097 O   0  0  0  0  0  0  0  0  0  0  0  0
   17.8349   73.0547   -8.7559 O   0  0  0  0  0  0  0  0  0  0  0  0
   20.0152   68.8068   -8.4505 O   0  0  0  0  0  0  0  0  0  0  0  0
   18.8573   70.8926   -8.7824 C   0  0  1  0  0  0  0  0  0  0  0  0
   17.6133   71.6943   -8.3946 C   0  0  1  0  0  0  0  0  0  0  0  0
   18.7779   69.4731   -8.2235 C   0  0  2  0  0  0  0  0  0  0  0  0
   17.3272   71.5805   -6.8912 C   0  0  1  0  0  0  0  0  0  0  0  0
   18.4409   69.4717   -6.7314 C   0  0  1  0  0  0  0  0  0  0  0  0
   18.9744   71.7279  -10.5708 H   0  0  0  0  0  0  0  0  0  0  0  0
   18.0148   73.1126   -9.7075 H   0  0  0  0  0  0  0  0  0  0  0  0
   20.2171   68.8142   -9.3987 H   0  0  0  0  0  0  0  0  0  0  0  0
   16.0678   72.6176   -5.1456 O   0  0  0  0  0  0  0  0  0  0  0  0
   16.0047   72.2415   -6.5090 C   0  0  0  0  0  0  0  0  0  0  0  0
   15.2328   73.0399   -4.8883 H   0  0  0  0  0  0  0  0  0  0  0  0
 25 28  1  0
 25 24  1  0
 25 26  1  6
 25 27  2  0
  1  4  1  0
  1 24  1  0
  1  2  1  6
  1  3  2  0
  6 11  1  0
  6 12  1  0
 29 36  1  0
 29 37  1  0
  9  7  1  6
  7 13  1  0
 10  8  1  1
  8 14  1  0
 37 28  1  1
  4  5  1  0
 33 30  1  6
 30 38  1  0
 34 31  1  1
 31 39  1  0
 35 32  1  1
 32 40  1  0
 41 42  1  0
 41 43  1  0
 15 19  2  0
 16 22  2  0
 12 17  1  1
 17 19  1  0
 17 20  1  0
 18 19  1  0
 18 22  1  0
 18 23  1  0
  9 10  1  0
  9 11  1  0
 10 12  1  0
 11  5  1  1
 33 34  1  0
 33 35  1  0
 34 36  1  0
 35 37  1  0
 36 42  1  6
 20 21  2  0
 21 22  1  0
M  CHG  2   2  -1  26  -1
M  END
>  <COMPND>  (195) 
    8629 

>  <AUTHOR>  (195) 
    GENERATED BY OPEN BABEL 3.1.1

>  <MASTER>  (195) 
        0    0    0    0    0    0    0    0   58    0   58    0

>  <minimizedAffinity>  (195) 
-7.26337

>  <CNNscore>  (195) 
0.3193243146

>  <CNNaffinity>  (195) 
4.0529527664

>  <CNN_VS>  (195) 
1.2942063808

>  <CNNaffinity_variance>  (195) 
0.0529491529

$$$$
196
     RDKit          3D

 43 45  0  0  0  0  0  0  0  0999 V2000
   20.5899   75.3890   -5.6952 P   0  0  2  0  0  0  0  0  0  0  0  0
   20.7468   75.8459   -4.1512 O   0  0  0  0  0  0  0  0  0  0  0  0
   20.1700   76.4776   -6.6387 O   0  0  0  0  0  0  0  0  0  0  0  0
   19.6083   74.1049   -5.6225 O   0  0  0  0  0  0  0  0  0  0  0  0
   18.5288   74.0264   -6.5371 C   0  0  0  0  0  0  0  0  0  0  0  0
   18.6272   71.6264   -6.4751 O   0  0  0  0  0  0  0  0  0  0  0  0
   18.0135   71.7122   -9.4088 O   0  0  0  0  0  0  0  0  0  0  0  0
   15.5928   71.0991   -8.3128 O   0  0  0  0  0  0  0  0  0  0  0  0
   17.5377   72.5572   -8.3625 C   0  0  1  0  0  0  0  0  0  0  0  0
   16.5108   71.8268   -7.5226 C   0  0  2  0  0  0  0  0  0  0  0  0
   18.6751   72.7598   -7.3692 C   0  0  1  0  0  0  0  0  0  0  0  0
   17.3861   70.9278   -6.6660 C   0  0  2  0  0  0  0  0  0  0  0  0
   17.3044   71.5686  -10.0559 H   0  0  0  0  0  0  0  0  0  0  0  0
   15.0595   71.7151   -8.8391 H   0  0  0  0  0  0  0  0  0  0  0  0
   17.5762   68.4528   -5.3184 O   0  0  0  0  0  0  0  0  0  0  0  0
   15.1040   69.9984   -1.7490 O   0  0  0  0  0  0  0  0  0  0  0  0
   16.8019   70.6558   -5.3830 N   0  0  0  0  0  0  0  0  0  0  0  0
   16.3452   69.2245   -3.5421 N   0  0  0  0  0  0  0  0  0  0  0  0
   16.9550   69.3793   -4.7936 C   0  0  0  0  0  0  0  0  0  0  0  0
   16.0868   71.6490   -4.7226 C   0  0  0  0  0  0  0  0  0  0  0  0
   15.5103   71.4849   -3.5302 C   0  0  0  0  0  0  0  0  0  0  0  0
   15.6230   70.1807   -2.8459 C   0  0  0  0  0  0  0  0  0  0  0  0
   16.4384   68.3433   -3.1124 H   0  0  0  0  0  0  0  0  0  0  0  0
   22.0277   74.7290   -6.0268 O   0  0  0  0  0  0  0  0  0  0  0  0
   22.5773   73.2229   -5.8204 P   0  0  2  0  0  0  0  0  0  0  0  0
   24.1838   73.4135   -5.8012 O   0  0  0  0  0  0  0  0  0  0  0  0
   22.0824   72.2416   -6.8432 O   0  0  0  0  0  0  0  0  0  0  0  0
   22.1926   72.8528   -4.2973 O   0  0  0  0  0  0  0  0  0  0  0  0
   23.1097   70.9222   -3.2734 O   0  0  0  0  0  0  0  0  0  0  0  0
   19.7932   71.4328   -0.8670 O   0  0  0  0  0  0  0  0  0  0  0  0
   22.4030   72.0358    0.1688 O   0  0  0  0  0  0  0  0  0  0  0  0
   19.6051   71.9381   -3.7111 O   0  0  0  0  0  0  0  0  0  0  0  0
   20.8928   71.8567   -1.6773 C   0  0  1  0  0  0  0  0  0  0  0  0
   22.1836   71.3284   -1.0484 C   0  0  1  0  0  0  0  0  0  0  0  0
   20.7159   71.3011   -3.0891 C   0  0  2  0  0  0  0  0  0  0  0  0
   23.3769   71.5119   -1.9957 C   0  0  1  0  0  0  0  0  0  0  0  0
   21.9774   71.4917   -3.9332 C   0  0  1  0  0  0  0  0  0  0  0  0
   19.8991   71.7826    0.0307 H   0  0  0  0  0  0  0  0  0  0  0  0
   21.6421   71.9121    0.7578 H   0  0  0  0  0  0  0  0  0  0  0  0
   18.8129   71.8099   -3.1673 H   0  0  0  0  0  0  0  0  0  0  0  0
   25.1794   70.0152   -2.4644 O   0  0  0  0  0  0  0  0  0  0  0  0
   24.6430   70.8510   -1.4553 C   0  0  0  0  0  0  0  0  0  0  0  0
   25.9860   69.5881   -2.1347 H   0  0  0  0  0  0  0  0  0  0  0  0
 25 28  1  0
 25 24  1  0
 25 26  1  1
 25 27  2  0
  1  4  1  0
  1 24  1  0
  1  2  1  1
  1  3  2  0
  6 11  1  0
  6 12  1  0
 29 36  1  0
 29 37  1  0
  9  7  1  6
  7 13  1  0
 10  8  1  6
  8 14  1  0
 37 28  1  1
  4  5  1  0
 33 30  1  1
 30 38  1  0
 34 31  1  1
 31 39  1  0
 35 32  1  6
 32 40  1  0
 41 42  1  0
 41 43  1  0
 15 19  2  0
 16 22  2  0
 12 17  1  1
 17 19  1  0
 17 20  1  0
 18 19  1  0
 18 22  1  0
 18 23  1  0
  9 10  1  0
  9 11  1  0
 10 12  1  0
 11  5  1  1
 33 34  1  0
 33 35  1  0
 34 36  1  0
 35 37  1  0
 36 42  1  1
 20 21  2  0
 21 22  1  0
M  CHG  2   2  -1  26  -1
M  END
>  <COMPND>  (196) 
    8629 

>  <AUTHOR>  (196) 
    GENERATED BY OPEN BABEL 3.1.1

>  <MASTER>  (196) 
        0    0    0    0    0    0    0    0   58    0   58    0

>  <minimizedAffinity>  (196) 
-7.00814

>  <CNNscore>  (196) 
0.3101747930

>  <CNNaffinity>  (196) 
4.1102428436

>  <CNN_VS>  (196) 
1.2748937607

>  <CNNaffinity_variance>  (196) 
0.2796971202

$$$$
197
     RDKit          3D

 43 45  0  0  0  0  0  0  0  0999 V2000
   17.8463   70.7942   -2.1244 P   0  0  2  0  0  0  0  0  0  0  0  0
   16.3956   71.4573   -1.8538 O   0  0  0  0  0  0  0  0  0  0  0  0
   18.2433   69.7204   -1.1544 O   0  0  0  0  0  0  0  0  0  0  0  0
   18.8439   72.0650   -2.2127 O   0  0  0  0  0  0  0  0  0  0  0  0
   18.2811   73.3649   -2.2512 C   0  0  0  0  0  0  0  0  0  0  0  0
   20.4078   74.2514   -2.9331 O   0  0  0  0  0  0  0  0  0  0  0  0
   19.1782   74.6105   -5.6442 O   0  0  0  0  0  0  0  0  0  0  0  0
   20.6417   72.3303   -5.9526 O   0  0  0  0  0  0  0  0  0  0  0  0
   18.9728   73.5690   -4.6911 C   0  0  1  0  0  0  0  0  0  0  0  0
   20.1708   72.6431   -4.6576 C   0  0  2  0  0  0  0  0  0  0  0  0
   19.0123   74.1908   -3.3007 C   0  0  1  0  0  0  0  0  0  0  0  0
   21.1720   73.4525   -3.8510 C   0  0  2  0  0  0  0  0  0  0  0  0
   19.1568   74.2377   -6.5400 H   0  0  0  0  0  0  0  0  0  0  0  0
   19.9696   71.8153   -6.4256 H   0  0  0  0  0  0  0  0  0  0  0  0
   23.5176   72.2914   -4.9133 O   0  0  0  0  0  0  0  0  0  0  0  0
   24.5590   70.2797   -0.8996 O   0  0  0  0  0  0  0  0  0  0  0  0
   22.0748   72.6211   -3.1058 N   0  0  0  0  0  0  0  0  0  0  0  0
   24.0343   71.2908   -2.9139 N   0  0  0  0  0  0  0  0  0  0  0  0
   23.2240   72.0867   -3.7336 C   0  0  0  0  0  0  0  0  0  0  0  0
   21.8168   72.3436   -1.7678 C   0  0  0  0  0  0  0  0  0  0  0  0
   22.5988   71.5817   -1.0002 C   0  0  0  0  0  0  0  0  0  0  0  0
   23.8197   70.9848   -1.5793 C   0  0  0  0  0  0  0  0  0  0  0  0
   24.8404   70.9074   -3.3298 H   0  0  0  0  0  0  0  0  0  0  0  0
   17.7420   70.3066   -3.6620 O   0  0  0  0  0  0  0  0  0  0  0  0
   18.5549   69.1683   -4.4722 P   0  0  2  0  0  0  0  0  0  0  0  0
   17.4446   68.0151   -4.7064 O   0  0  0  0  0  0  0  0  0  0  0  0
   19.8028   68.6959   -3.7841 O   0  0  0  0  0  0  0  0  0  0  0  0
   18.7978   69.8035   -5.9359 O   0  0  0  0  0  0  0  0  0  0  0  0
   16.7007   70.2421   -6.9489 O   0  0  0  0  0  0  0  0  0  0  0  0
   19.1731   71.1629  -10.1254 O   0  0  0  0  0  0  0  0  0  0  0  0
   17.8386   73.2748   -8.7086 O   0  0  0  0  0  0  0  0  0  0  0  0
   19.8087   68.9255   -8.4022 O   0  0  0  0  0  0  0  0  0  0  0  0
   18.7962   71.0834   -8.7481 C   0  0  1  0  0  0  0  0  0  0  0  0
   17.5144   71.8959   -8.5539 C   0  0  1  0  0  0  0  0  0  0  0  0
   18.5661   69.6195   -8.3773 C   0  0  2  0  0  0  0  0  0  0  0  0
   16.9025   71.6429   -7.1695 C   0  0  1  0  0  0  0  0  0  0  0  0
   17.9092   69.4815   -7.0027 C   0  0  1  0  0  0  0  0  0  0  0  0
   19.3212   72.0898  -10.3671 H   0  0  0  0  0  0  0  0  0  0  0  0
   18.2245   73.4209   -9.5866 H   0  0  0  0  0  0  0  0  0  0  0  0
   20.2143   69.0202   -9.2776 H   0  0  0  0  0  0  0  0  0  0  0  0
   14.9710   72.4825   -8.2981 O   0  0  0  0  0  0  0  0  0  0  0  0
   15.5424   72.3196   -7.0131 C   0  0  0  0  0  0  0  0  0  0  0  0
   14.1048   72.9117   -8.2141 H   0  0  0  0  0  0  0  0  0  0  0  0
 25 28  1  0
 25 24  1  0
 25 26  1  6
 25 27  2  0
  1  4  1  0
  1 24  1  0
  1  2  1  1
  1  3  2  0
  6 11  1  0
  6 12  1  0
 29 36  1  0
 29 37  1  0
  9  7  1  6
  7 13  1  0
 10  8  1  6
  8 14  1  0
 37 28  1  1
  4  5  1  0
 33 30  1  6
 30 38  1  0
 34 31  1  1
 31 39  1  0
 35 32  1  1
 32 40  1  0
 41 42  1  0
 41 43  1  0
 15 19  2  0
 16 22  2  0
 12 17  1  1
 17 19  1  0
 17 20  1  0
 18 19  1  0
 18 22  1  0
 18 23  1  0
  9 10  1  0
  9 11  1  0
 10 12  1  0
 11  5  1  1
 33 34  1  0
 33 35  1  0
 34 36  1  0
 35 37  1  0
 36 42  1  6
 20 21  2  0
 21 22  1  0
M  CHG  2   2  -1  26  -1
M  END
>  <COMPND>  (197) 
    8629 

>  <AUTHOR>  (197) 
    GENERATED BY OPEN BABEL 3.1.1

>  <MASTER>  (197) 
        0    0    0    0    0    0    0    0   58    0   58    0

>  <minimizedAffinity>  (197) 
-7.55031

>  <CNNscore>  (197) 
0.3019440174

>  <CNNaffinity>  (197) 
4.0306367874

>  <CNN_VS>  (197) 
1.2170267105

>  <CNNaffinity_variance>  (197) 
0.3170596659

$$$$
198
     RDKit          3D

 43 45  0  0  0  0  0  0  0  0999 V2000
   19.3761   69.6527   -2.5536 P   0  0  2  0  0  0  0  0  0  0  0  0
   19.5367   69.3844   -0.9662 O   0  0  0  0  0  0  0  0  0  0  0  0
   19.5687   68.4452   -3.4232 O   0  0  0  0  0  0  0  0  0  0  0  0
   20.3756   70.8922   -2.8410 O   0  0  0  0  0  0  0  0  0  0  0  0
   19.8543   72.2086   -2.7829 C   0  0  0  0  0  0  0  0  0  0  0  0
   20.9589   74.2103   -3.5225 O   0  0  0  0  0  0  0  0  0  0  0  0
   21.4166   72.7758   -6.1155 O   0  0  0  0  0  0  0  0  0  0  0  0
   23.8351   72.5494   -4.8759 O   0  0  0  0  0  0  0  0  0  0  0  0
   21.4228   72.2596   -4.7855 C   0  0  1  0  0  0  0  0  0  0  0  0
   22.6860   72.6804   -4.0639 C   0  0  2  0  0  0  0  0  0  0  0  0
   20.3456   72.9903   -3.9935 C   0  0  1  0  0  0  0  0  0  0  0  0
   22.3808   74.1264   -3.7117 C   0  0  2  0  0  0  0  0  0  0  0  0
   22.0963   72.3240   -6.6406 H   0  0  0  0  0  0  0  0  0  0  0  0
   23.9871   71.6118   -5.0724 H   0  0  0  0  0  0  0  0  0  0  0  0
   24.0494   76.3966   -3.5114 O   0  0  0  0  0  0  0  0  0  0  0  0
   24.8475   75.6418    0.9646 O   0  0  0  0  0  0  0  0  0  0  0  0
   23.0373   74.5467   -2.5060 N   0  0  0  0  0  0  0  0  0  0  0  0
   24.4453   76.0190   -1.2828 N   0  0  0  0  0  0  0  0  0  0  0  0
   23.8547   75.7010   -2.5125 C   0  0  0  0  0  0  0  0  0  0  0  0
   22.8674   73.8176   -1.3341 C   0  0  0  0  0  0  0  0  0  0  0  0
   23.4386   74.1335   -0.1700 C   0  0  0  0  0  0  0  0  0  0  0  0
   24.3079   75.3251   -0.0910 C   0  0  0  0  0  0  0  0  0  0  0  0
   25.0194   76.8189   -1.2634 H   0  0  0  0  0  0  0  0  0  0  0  0
   17.9136   70.3328   -2.6610 O   0  0  0  0  0  0  0  0  0  0  0  0
   16.5213   69.7676   -3.2569 P   0  0  2  0  0  0  0  0  0  0  0  0
   15.4221   70.8042   -2.6782 O   0  0  0  0  0  0  0  0  0  0  0  0
   16.2496   68.3286   -2.9264 O   0  0  0  0  0  0  0  0  0  0  0  0
   16.5927   70.0891   -4.8369 O   0  0  0  0  0  0  0  0  0  0  0  0
   18.4112   71.1541   -5.9210 O   0  0  0  0  0  0  0  0  0  0  0  0
   15.3594   72.3311   -8.4415 O   0  0  0  0  0  0  0  0  0  0  0  0
   17.2475   70.3563   -9.3266 O   0  0  0  0  0  0  0  0  0  0  0  0
   14.9049   72.2024   -5.5856 O   0  0  0  0  0  0  0  0  0  0  0  0
   16.0529   71.4420   -7.5617 C   0  0  1  0  0  0  0  0  0  0  0  0
   17.4312   71.1535   -8.1600 C   0  0  1  0  0  0  0  0  0  0  0  0
   16.1894   72.1021   -6.1909 C   0  0  2  0  0  0  0  0  0  0  0  0
   18.3315   70.4264   -7.1522 C   0  0  1  0  0  0  0  0  0  0  0  0
   17.1443   71.3254   -5.2826 C   0  0  1  0  0  0  0  0  0  0  0  0
   15.2690   71.9178   -9.3136 H   0  0  0  0  0  0  0  0  0  0  0  0
   16.6769   70.8266   -9.9546 H   0  0  0  0  0  0  0  0  0  0  0  0
   14.3098   72.6964   -6.1701 H   0  0  0  0  0  0  0  0  0  0  0  0
   20.0732   71.3930   -8.4716 O   0  0  0  0  0  0  0  0  0  0  0  0
   19.7593   70.2688   -7.6705 C   0  0  0  0  0  0  0  0  0  0  0  0
   20.9793   71.3066   -8.8082 H   0  0  0  0  0  0  0  0  0  0  0  0
 25 28  1  0
 25 24  1  0
 25 26  1  1
 25 27  2  0
  1  4  1  0
  1 24  1  0
  1  2  1  1
  1  3  2  0
  6 11  1  0
  6 12  1  0
 29 36  1  0
 29 37  1  0
  9  7  1  6
  7 13  1  0
 10  8  1  6
  8 14  1  0
 37 28  1  6
  4  5  1  0
 33 30  1  6
 30 38  1  0
 34 31  1  6
 31 39  1  0
 35 32  1  1
 32 40  1  0
 41 42  1  0
 41 43  1  0
 15 19  2  0
 16 22  2  0
 12 17  1  1
 17 19  1  0
 17 20  1  0
 18 19  1  0
 18 22  1  0
 18 23  1  0
  9 10  1  0
  9 11  1  0
 10 12  1  0
 11  5  1  1
 33 34  1  0
 33 35  1  0
 34 36  1  0
 35 37  1  0
 36 42  1  6
 20 21  2  0
 21 22  1  0
M  CHG  2   2  -1  26  -1
M  END
>  <COMPND>  (198) 
    8629 

>  <AUTHOR>  (198) 
    GENERATED BY OPEN BABEL 3.1.1

>  <MASTER>  (198) 
        0    0    0    0    0    0    0    0   58    0   58    0

>  <minimizedAffinity>  (198) 
-7.05661

>  <CNNscore>  (198) 
0.2962358296

>  <CNNaffinity>  (198) 
3.9568717480

>  <CNN_VS>  (198) 
1.1721671820

>  <CNNaffinity_variance>  (198) 
0.2489319295

$$$$
199
     RDKit          3D

 43 45  0  0  0  0  0  0  0  0999 V2000
   18.4783   69.5318   -5.3650 P   0  0  2  0  0  0  0  0  0  0  0  0
   19.4456   69.3952   -6.6546 O   0  0  0  0  0  0  0  0  0  0  0  0
   17.5269   68.3893   -5.1626 O   0  0  0  0  0  0  0  0  0  0  0  0
   17.7984   70.9893   -5.5421 O   0  0  0  0  0  0  0  0  0  0  0  0
   16.4754   71.0617   -6.0443 C   0  0  0  0  0  0  0  0  0  0  0  0
   15.2254   71.7714   -7.9698 O   0  0  0  0  0  0  0  0  0  0  0  0
   17.8778   72.2080   -9.2983 O   0  0  0  0  0  0  0  0  0  0  0  0
   17.1535   74.7349   -8.5725 O   0  0  0  0  0  0  0  0  0  0  0  0
   17.5059   72.4148   -7.9366 C   0  0  1  0  0  0  0  0  0  0  0  0
   16.6506   73.6580   -7.8081 C   0  0  2  0  0  0  0  0  0  0  0  0
   16.5279   71.3141   -7.5449 C   0  0  1  0  0  0  0  0  0  0  0  0
   15.3027   73.1661   -8.3072 C   0  0  2  0  0  0  0  0  0  0  0  0
   18.5026   72.8988   -9.5711 H   0  0  0  0  0  0  0  0  0  0  0  0
   18.0120   75.0116   -8.2158 H   0  0  0  0  0  0  0  0  0  0  0  0
   13.1469   74.3201   -9.7209 O   0  0  0  0  0  0  0  0  0  0  0  0
   11.1487   75.7915   -5.8372 O   0  0  0  0  0  0  0  0  0  0  0  0
   14.2051   73.8565   -7.6906 N   0  0  0  0  0  0  0  0  0  0  0  0
   12.1536   75.0517   -7.7860 N   0  0  0  0  0  0  0  0  0  0  0  0
   13.1737   74.4003   -8.4911 C   0  0  0  0  0  0  0  0  0  0  0  0
   14.1590   73.9885   -6.3070 C   0  0  0  0  0  0  0  0  0  0  0  0
   13.1798   74.6138   -5.6500 C   0  0  0  0  0  0  0  0  0  0  0  0
   12.0637   75.2101   -6.4121 C   0  0  0  0  0  0  0  0  0  0  0  0
   11.4244   75.4387   -8.3229 H   0  0  0  0  0  0  0  0  0  0  0  0
   19.5209   69.7622   -4.1514 O   0  0  0  0  0  0  0  0  0  0  0  0
   20.2398   71.1049   -3.6101 P   0  0  2  0  0  0  0  0  0  0  0  0
   21.3119   70.5444   -2.5358 O   0  0  0  0  0  0  0  0  0  0  0  0
   19.2922   72.1318   -3.0611 O   0  0  0  0  0  0  0  0  0  0  0  0
   21.1358   71.6172   -4.8509 O   0  0  0  0  0  0  0  0  0  0  0  0
   21.5038   73.9555   -4.7336 O   0  0  0  0  0  0  0  0  0  0  0  0
   23.0291   73.2358   -8.5027 O   0  0  0  0  0  0  0  0  0  0  0  0
   24.8207   73.8245   -6.3367 O   0  0  0  0  0  0  0  0  0  0  0  0
   20.6635   71.8270   -7.6092 O   0  0  0  0  0  0  0  0  0  0  0  0
   22.7467   72.9380   -7.1327 C   0  0  1  0  0  0  0  0  0  0  0  0
   23.4096   74.0080   -6.2629 C   0  0  1  0  0  0  0  0  0  0  0  0
   21.2335   72.9368   -6.9238 C   0  0  2  0  0  0  0  0  0  0  0  0
   22.9336   73.9115   -4.8071 C   0  0  1  0  0  0  0  0  0  0  0  0
   20.8684   72.8876   -5.4391 C   0  0  1  0  0  0  0  0  0  0  0  0
   23.9883   73.2377   -8.6422 H   0  0  0  0  0  0  0  0  0  0  0  0
   25.1082   73.8873   -7.2611 H   0  0  0  0  0  0  0  0  0  0  0  0
   20.9016   71.8698   -8.5480 H   0  0  0  0  0  0  0  0  0  0  0  0
   22.4531   75.4378   -3.0328 O   0  0  0  0  0  0  0  0  0  0  0  0
   23.4597   75.0650   -3.9558 C   0  0  0  0  0  0  0  0  0  0  0  0
   22.7740   76.1709   -2.4838 H   0  0  0  0  0  0  0  0  0  0  0  0
 25 28  1  0
 25 24  1  0
 25 26  1  1
 25 27  2  0
  1  4  1  0
  1 24  1  0
  1  2  1  6
  1  3  2  0
  6 11  1  0
  6 12  1  0
 29 36  1  0
 29 37  1  0
  9  7  1  6
  7 13  1  0
 10  8  1  6
  8 14  1  0
 37 28  1  1
  4  5  1  0
 33 30  1  6
 30 38  1  0
 34 31  1  1
 31 39  1  0
 35 32  1  6
 32 40  1  0
 41 42  1  0
 41 43  1  0
 15 19  2  0
 16 22  2  0
 12 17  1  1
 17 19  1  0
 17 20  1  0
 18 19  1  0
 18 22  1  0
 18 23  1  0
  9 10  1  0
  9 11  1  0
 10 12  1  0
 11  5  1  1
 33 34  1  0
 33 35  1  0
 34 36  1  0
 35 37  1  0
 36 42  1  1
 20 21  2  0
 21 22  1  0
M  CHG  2   2  -1  26  -1
M  END
>  <COMPND>  (199) 
    8629 

>  <AUTHOR>  (199) 
    GENERATED BY OPEN BABEL 3.1.1

>  <MASTER>  (199) 
        0    0    0    0    0    0    0    0   58    0   58    0

>  <minimizedAffinity>  (199) 
-6.60239

>  <CNNscore>  (199) 
0.2680830956

>  <CNNaffinity>  (199) 
4.0401825905

>  <CNN_VS>  (199) 
1.0831046104

>  <CNNaffinity_variance>  (199) 
0.0388361588

$$$$
200
     RDKit          3D

 43 45  0  0  0  0  0  0  0  0999 V2000
   18.5531   69.3753   -2.3777 P   0  0  2  0  0  0  0  0  0  0  0  0
   19.4322   69.5295   -1.0283 O   0  0  0  0  0  0  0  0  0  0  0  0
   17.7950   68.0859   -2.4963 O   0  0  0  0  0  0  0  0  0  0  0  0
   19.6081   69.6819   -3.5656 O   0  0  0  0  0  0  0  0  0  0  0  0
   20.9793   69.8150   -3.2344 C   0  0  0  0  0  0  0  0  0  0  0  0
   20.5420   72.1088   -3.8007 O   0  0  0  0  0  0  0  0  0  0  0  0
   23.5022   72.3811   -4.1928 O   0  0  0  0  0  0  0  0  0  0  0  0
   23.1251   73.4850   -1.7279 O   0  0  0  0  0  0  0  0  0  0  0  0
   22.7869   71.6055   -3.2326 C   0  0  1  0  0  0  0  0  0  0  0  0
   22.2059   72.5025   -2.1596 C   0  0  2  0  0  0  0  0  0  0  0  0
   21.5330   71.0634   -3.9074 C   0  0  1  0  0  0  0  0  0  0  0  0
   21.0009   73.0995   -2.8665 C   0  0  2  0  0  0  0  0  0  0  0  0
   24.3075   72.7377   -3.7849 H   0  0  0  0  0  0  0  0  0  0  0  0
   23.8733   73.0555   -1.2845 H   0  0  0  0  0  0  0  0  0  0  0  0
   18.8525   74.8315   -3.4686 O   0  0  0  0  0  0  0  0  0  0  0  0
   16.9651   74.2346    0.6934 O   0  0  0  0  0  0  0  0  0  0  0  0
   19.9339   73.4143   -1.9589 N   0  0  0  0  0  0  0  0  0  0  0  0
   17.9143   74.5327   -1.3958 N   0  0  0  0  0  0  0  0  0  0  0  0
   18.9035   74.2966   -2.3591 C   0  0  0  0  0  0  0  0  0  0  0  0
   19.9161   72.8502   -0.6879 C   0  0  0  0  0  0  0  0  0  0  0  0
   18.9663   73.0866    0.2194 C   0  0  0  0  0  0  0  0  0  0  0  0
   17.8534   73.9970   -0.1191 C   0  0  0  0  0  0  0  0  0  0  0  0
   17.1865   75.1445   -1.6522 H   0  0  0  0  0  0  0  0  0  0  0  0
   17.6280   70.7007   -2.3623 O   0  0  0  0  0  0  0  0  0  0  0  0
   16.1098   70.9415   -2.8625 P   0  0  2  0  0  0  0  0  0  0  0  0
   15.8173   72.4744   -2.4360 O   0  0  0  0  0  0  0  0  0  0  0  0
   15.1200   69.9493   -2.3243 O   0  0  0  0  0  0  0  0  0  0  0  0
   16.2114   70.9787   -4.4729 O   0  0  0  0  0  0  0  0  0  0  0  0
   18.0005   72.0142   -5.6318 O   0  0  0  0  0  0  0  0  0  0  0  0
   15.0758   72.3123   -8.5315 O   0  0  0  0  0  0  0  0  0  0  0  0
   17.2225   70.4350   -8.8706 O   0  0  0  0  0  0  0  0  0  0  0  0
   14.3907   72.6939   -5.7450 O   0  0  0  0  0  0  0  0  0  0  0  0
   15.7764   71.6995   -7.4456 C   0  0  1  0  0  0  0  0  0  0  0  0
   17.2233   71.4612   -7.8821 C   0  0  1  0  0  0  0  0  0  0  0  0
   15.7264   72.6266   -6.2327 C   0  0  2  0  0  0  0  0  0  0  0  0
   18.1014   71.0551   -6.6909 C   0  0  1  0  0  0  0  0  0  0  0  0
   16.6723   72.1591   -5.1251 C   0  0  1  0  0  0  0  0  0  0  0  0
   15.1033   71.7285   -9.3047 H   0  0  0  0  0  0  0  0  0  0  0  0
   16.6641   70.7037   -9.6170 H   0  0  0  0  0  0  0  0  0  0  0  0
   13.8018   72.9913   -6.4553 H   0  0  0  0  0  0  0  0  0  0  0  0
   19.7787   69.7763   -7.8137 O   0  0  0  0  0  0  0  0  0  0  0  0
   19.5774   70.9657   -7.0726 C   0  0  0  0  0  0  0  0  0  0  0  0
   20.7137   69.7063   -8.0638 H   0  0  0  0  0  0  0  0  0  0  0  0
 25 28  1  0
 25 24  1  0
 25 26  1  1
 25 27  2  0
  1  4  1  0
  1 24  1  0
  1  2  1  1
  1  3  2  0
  6 11  1  0
  6 12  1  0
 29 36  1  0
 29 37  1  0
  9  7  1  6
  7 13  1  0
 10  8  1  6
  8 14  1  0
 37 28  1  6
  4  5  1  0
 33 30  1  6
 30 38  1  0
 34 31  1  6
 31 39  1  0
 35 32  1  1
 32 40  1  0
 41 42  1  0
 41 43  1  0
 15 19  2  0
 16 22  2  0
 12 17  1  1
 17 19  1  0
 17 20  1  0
 18 19  1  0
 18 22  1  0
 18 23  1  0
  9 10  1  0
  9 11  1  0
 10 12  1  0
 11  5  1  1
 33 34  1  0
 33 35  1  0
 34 36  1  0
 35 37  1  0
 36 42  1  6
 20 21  2  0
 21 22  1  0
M  CHG  2   2  -1  26  -1
M  END
